MODEL 1
REMARK VINA RESULT:     -11.3      0.000      0.000
ROOT
ATOM     32  C23 UNL A   1      53.522  19.546  11.675  1.00  0.00    +0.000 C 
ATOM     33  C24 UNL A   1      54.886  18.929  11.551  1.00  0.00    +0.000 C 
ATOM     34  N6  UNL A   1      55.884  18.947  12.398  1.00  0.00    +0.000 N 
ATOM     35  C25 UNL A   1      56.888  18.186  11.814  1.00  0.00    +0.000 C 
ATOM     36  C26 UNL A   1      58.141  17.949  12.270  1.00  0.00    +0.000 C 
ATOM     48  C33 UNL A   1      58.670  18.478  13.500  1.00  0.00    +0.000 C 
ATOM     49  C34 UNL A   1      59.947  18.349  14.016  1.00  0.00    +0.000 C 
ATOM     50  C35 UNL A   1      59.986  18.998  15.256  1.00  0.00    +0.000 C 
ATOM     51  C36 UNL A   1      58.744  19.569  15.491  1.00  0.00    +0.000 C 
ATOM     52  N7  UNL A   1      57.946  19.238  14.407  1.00  0.00    +0.000 N 
ATOM     53  C37 UNL A   1      58.317  20.356  16.618  1.00  0.00    +0.000 C 
ATOM     65  C44 UNL A   1      57.080  20.891  16.771  1.00  0.00    +0.000 C 
ATOM     66  N8  UNL A   1      55.986  20.815  15.920  1.00  0.00    +0.000 N 
ATOM     67  C45 UNL A   1      55.025  21.482  16.509  1.00  0.00    +0.000 C 
ATOM     68  C46 UNL A   1      53.625  21.750  16.030  1.00  0.00    +0.000 C 
ATOM     80  C53 UNL A   1      53.243  21.294  14.822  1.00  0.00    +0.000 C 
ATOM     81  C54 UNL A   1      51.927  21.484  14.221  1.00  0.00    +0.000 C 
ATOM     82  C55 UNL A   1      51.893  20.860  13.033  1.00  0.00    +0.000 C 
ATOM     83  C56 UNL A   1      53.198  20.254  12.774  1.00  0.00    +0.000 C 
ATOM     84  N9  UNL A   1      53.938  20.568  13.886  1.00  0.00    +0.000 N 
ATOM     85  C57 UNL A   1      55.393  22.034  17.820  1.00  0.00    +0.000 C 
ATOM     86  C58 UNL A   1      56.666  21.677  17.914  1.00  0.00    +0.000 C 
ATOM     87  C59 UNL A   1      56.363  17.681  10.564  1.00  0.00    +0.000 C 
ATOM     88  C60 UNL A   1      55.154  18.166  10.322  1.00  0.00    +0.000 C 
ATOM    117  H27 UNL A   1      60.736  17.860  13.566  1.00  0.00    +0.000 H 
ATOM    118  H28 UNL A   1      60.799  19.044  15.889  1.00  0.00    +0.000 H 
ATOM    119  H29 UNL A   1      57.004  19.503  14.297  1.00  0.00    +0.000 H 
ATOM    120  H30 UNL A   1      51.148  22.014  14.643  1.00  0.00    +0.000 H 
ATOM    121  H31 UNL A   1      51.076  20.815  12.404  1.00  0.00    +0.000 H 
ATOM    122  H32 UNL A   1      54.879  20.299  14.002  1.00  0.00    +0.000 H 
ATOM    123  H33 UNL A   1      54.813  22.563  18.491  1.00  0.00    +0.000 H 
ATOM    124  H34 UNL A   1      57.284  21.927  18.703  1.00  0.00    +0.000 H 
ATOM    125  H35 UNL A   1      56.865  17.028   9.942  1.00  0.00    +0.000 H 
ATOM    126  H36 UNL A   1      54.557  18.041   9.490  1.00  0.00    +0.000 H 
ENDROOT
BRANCH   32   31
ATOM    115  H25 UNL A   1      50.280  17.044   9.529  1.00  0.00    +0.000 H 
ATOM    116  H26 UNL A   1      51.853  17.436  11.336  1.00  0.00    +0.000 H 
ATOM     89  C61 UNL A   1      52.295  20.298   9.638  1.00  0.00    +0.000 C 
ATOM     90  C62 UNL A   1      51.336  20.105   8.646  1.00  0.00    +0.000 C 
ATOM    127  H37 UNL A   1      52.855  21.165   9.649  1.00  0.00    +0.000 H 
ATOM     28  C19 UNL A   1      50.644  18.893   8.573  1.00  0.00    +0.000 C 
ATOM     29  C20 UNL A   1      50.823  17.922   9.561  1.00  0.00    +0.000 C 
ATOM     30  C21 UNL A   1      51.738  18.141  10.592  1.00  0.00    +0.000 C 
ATOM     31  C22 UNL A   1      52.502  19.319  10.622  1.00  0.00    +0.000 C 
ATOM    128  H38 UNL A   1      51.138  20.857   7.967  1.00  0.00    +0.000 H 
BRANCH   28   26
ATOM     26  C18 UNL A   1      49.703  18.619   7.465  1.00  0.00    +0.000 C 
ATOM     27  O3  UNL A   1      49.366  17.463   7.226  1.00  0.00    +0.000 O 
BRANCH   26   25
ATOM     25  N5  UNL A   1      49.228  19.652   6.699  1.00  0.00    +0.000 N 
ATOM    114  H24 UNL A   1      49.231  20.536   7.133  1.00  0.00    +0.000 H 
BRANCH   25   24
ATOM    113  H23 UNL A   1      49.181  18.800   4.834  1.00  0.00    +0.000 H 
ATOM    112  H22 UNL A   1      48.965  20.555   4.863  1.00  0.00    +0.000 H 
ATOM     24  C17 UNL A   1      48.724  19.627   5.336  1.00  0.00    +0.000 C 
BRANCH   24   23
ATOM    111  H21 UNL A   1      46.875  19.413   6.296  1.00  0.00    +0.000 H 
ATOM    110  H20 UNL A   1      47.016  18.515   4.757  1.00  0.00    +0.000 H 
ATOM     23  C16 UNL A   1      47.213  19.427   5.281  1.00  0.00    +0.000 C 
BRANCH   23   22
ATOM    108  H18 UNL A   1      46.188  21.285   5.325  1.00  0.00    +0.000 H 
ATOM    109  H19 UNL A   1      47.083  20.922   3.817  1.00  0.00    +0.000 H 
ATOM     22  C15 UNL A   1      46.439  20.552   4.587  1.00  0.00    +0.000 C 
BRANCH   22   21
ATOM    106  H16 UNL A   1      44.683  19.363   4.485  1.00  0.00    +0.000 H 
ATOM    107  H17 UNL A   1      44.553  21.006   3.787  1.00  0.00    +0.000 H 
ATOM     21  C14 UNL A   1      45.146  20.121   3.888  1.00  0.00    +0.000 C 
BRANCH   21   20
ATOM    105  H15 UNL A   1      44.854  18.604   2.453  1.00  0.00    +0.000 H 
ATOM     20  C13 UNL A   1      45.324  19.565   2.470  1.00  0.00    +0.000 C 
ATOM    104  H14 UNL A   1      46.371  19.517   2.257  1.00  0.00    +0.000 H 
BRANCH   20   19
ATOM     19  C12 UNL A   1      44.653  20.402   1.384  1.00  0.00    +0.000 C 
ATOM    102  H12 UNL A   1      45.214  21.302   1.238  1.00  0.00    +0.000 H 
ATOM    103  H13 UNL A   1      44.625  19.831   0.479  1.00  0.00    +0.000 H 
BRANCH   19   18
ATOM     18  N4  UNL A   1      43.294  20.743   1.761  1.00  0.00    +0.000 N 
ATOM    101  H11 UNL A   1      43.177  21.667   2.078  1.00  0.00    +0.000 H 
BRANCH   18   16
ATOM     17  O2  UNL A   1      41.978  19.225   2.695  1.00  0.00    +0.000 O 
ATOM     16  C11 UNL A   1      42.154  19.999   1.747  1.00  0.00    +0.000 C 
BRANCH   16    2
ATOM      2  C2  UNL A   1      41.118  20.102   0.623  1.00  0.00    +0.000 C 
ATOM     94  H4  UNL A   1      40.848  21.122   0.448  1.00  0.00    +0.000 H 
BRANCH    2    1
ATOM      1  C1  UNL A   1      41.681  19.700  -0.737  1.00  0.00    +0.000 C 
ATOM     91  H1  UNL A   1      41.026  18.989  -1.197  1.00  0.00    +0.000 H 
ATOM     92  H2  UNL A   1      42.649  19.262  -0.607  1.00  0.00    +0.000 H 
ATOM     93  H3  UNL A   1      41.761  20.567  -1.359  1.00  0.00    +0.000 H 
ENDBRANCH    2    1
BRANCH    2    3
ATOM      3  S1  UNL A   1      39.598  19.239   1.162  1.00  0.00    +0.000 S 
BRANCH    3    4
ATOM     97  H7  UNL A   1      34.540  24.057  -2.046  1.00  0.00    +0.000 H 
ATOM     98  H8  UNL A   1      34.468  23.133   0.201  1.00  0.00    +0.000 H 
ATOM      4  C3  UNL A   1      38.362  20.405   0.762  1.00  0.00    +0.000 C 
ATOM      5  N1  UNL A   1      38.425  20.938  -0.414  1.00  0.00    +0.000 N 
ATOM      6  C4  UNL A   1      37.387  21.793  -0.808  1.00  0.00    +0.000 C 
ATOM      7  C5  UNL A   1      37.418  22.335  -2.096  1.00  0.00    +0.000 C 
ATOM      8  C6  UNL A   1      36.382  23.158  -2.548  1.00  0.00    +0.000 C 
ATOM      9  C7  UNL A   1      35.304  23.449  -1.712  1.00  0.00    +0.000 C 
ATOM     10  C8  UNL A   1      35.261  22.918  -0.423  1.00  0.00    +0.000 C 
ATOM     11  C9  UNL A   1      36.302  22.092   0.017  1.00  0.00    +0.000 C 
ATOM     12  C10 UNL A   1      36.268  21.486   1.360  1.00  0.00    +0.000 C 
ATOM     13  O1  UNL A   1      35.330  21.702   2.126  1.00  0.00    +0.000 O 
ATOM     14  N2  UNL A   1      37.339  20.647   1.672  1.00  0.00    +0.000 N 
ATOM     95  H5  UNL A   1      38.214  22.127  -2.719  1.00  0.00    +0.000 H 
ATOM     96  H6  UNL A   1      36.414  23.550  -3.502  1.00  0.00    +0.000 H 
BRANCH   14   15
ATOM     99  H9  UNL A   1      36.459  19.794   3.384  1.00  0.00    +0.000 H 
ATOM    100  H10 UNL A   1      38.161  19.862   3.445  1.00  0.00    +0.000 H 
ATOM     15  N3  UNL A   1      37.318  20.038   2.969  1.00  0.00    +0.000 N 
ENDBRANCH   14   15
ENDBRANCH    3    4
ENDBRANCH    2    3
ENDBRANCH   16    2
ENDBRANCH   18   16
ENDBRANCH   19   18
ENDBRANCH   20   19
ENDBRANCH   21   20
ENDBRANCH   22   21
ENDBRANCH   23   22
ENDBRANCH   24   23
ENDBRANCH   25   24
ENDBRANCH   26   25
ENDBRANCH   28   26
ENDBRANCH   32   31
BRANCH   36   37
ATOM     37  C27 UNL A   1      59.029  17.077  11.430  1.00  0.00    +0.000 C 
ATOM     38  C28 UNL A   1      59.890  17.619  10.464  1.00  0.00    +0.000 C 
ATOM     39  F1  UNL A   1      59.913  18.943  10.246  1.00  0.00    +0.000 F 
ATOM     40  C29 UNL A   1      60.703  16.798   9.687  1.00  0.00    +0.000 C 
ATOM     41  F2  UNL A   1      61.479  17.334   8.734  1.00  0.00    +0.000 F 
ATOM     42  C30 UNL A   1      60.697  15.426   9.884  1.00  0.00    +0.000 C 
ATOM     43  F3  UNL A   1      61.482  14.636   9.137  1.00  0.00    +0.000 F 
ATOM     44  C31 UNL A   1      59.872  14.869  10.850  1.00  0.00    +0.000 C 
ATOM     45  F4  UNL A   1      59.874  13.544  11.050  1.00  0.00    +0.000 F 
ATOM     46  C32 UNL A   1      59.036  15.686  11.609  1.00  0.00    +0.000 C 
ATOM     47  F5  UNL A   1      58.236  15.116  12.523  1.00  0.00    +0.000 F 
ENDBRANCH   36   37
BRANCH   53   54
ATOM     54  C38 UNL A   1      59.320  20.628  17.699  1.00  0.00    +0.000 C 
ATOM     55  C39 UNL A   1      60.111  21.786  17.693  1.00  0.00    +0.000 C 
ATOM     56  F6  UNL A   1      60.023  22.659  16.677  1.00  0.00    +0.000 F 
ATOM     57  C40 UNL A   1      61.024  22.034  18.714  1.00  0.00    +0.000 C 
ATOM     58  F7  UNL A   1      61.800  23.125  18.667  1.00  0.00    +0.000 F 
ATOM     59  C41 UNL A   1      61.141  21.147  19.774  1.00  0.00    +0.000 C 
ATOM     60  F8  UNL A   1      62.016  21.391  20.761  1.00  0.00    +0.000 F 
ATOM     61  C42 UNL A   1      60.357  20.004  19.809  1.00  0.00    +0.000 C 
ATOM     62  F9  UNL A   1      60.461  19.151  20.837  1.00  0.00    +0.000 F 
ATOM     63  C43 UNL A   1      59.463  19.740  18.775  1.00  0.00    +0.000 C 
ATOM     64  F10 UNL A   1      58.725  18.621  18.830  1.00  0.00    +0.000 F 
ENDBRANCH   53   54
BRANCH   68   69
ATOM     69  C47 UNL A   1      52.673  22.536  16.853  1.00  0.00    +0.000 C 
ATOM     70  C48 UNL A   1      51.917  21.920  17.860  1.00  0.00    +0.000 C 
ATOM     71  F11 UNL A   1      52.028  20.599  18.066  1.00  0.00    +0.000 F 
ATOM     72  C49 UNL A   1      51.021  22.651  18.636  1.00  0.00    +0.000 C 
ATOM     73  F12 UNL A   1      50.283  22.030  19.568  1.00  0.00    +0.000 F 
ATOM     74  C50 UNL A   1      50.881  24.016  18.438  1.00  0.00    +0.000 C 
ATOM     75  F13 UNL A   1      50.023  24.720  19.189  1.00  0.00    +0.000 F 
ATOM     76  C51 UNL A   1      51.628  24.650  17.456  1.00  0.00    +0.000 C 
ATOM     77  F14 UNL A   1      51.505  25.971  17.270  1.00  0.00    +0.000 F 
ATOM     78  C52 UNL A   1      52.506  23.916  16.663  1.00  0.00    +0.000 C 
ATOM     79  F15 UNL A   1      53.210  24.552  15.715  1.00  0.00    +0.000 F 
ENDBRANCH   68   69
TORSDOF 19
ENDMDL
MODEL 2
REMARK VINA RESULT:     -11.3      1.486      7.629
ROOT
ATOM     32  C23 UNL A   1      53.266  19.762  11.524  1.00  0.00    +0.000 C 
ATOM     33  C24 UNL A   1      53.031  20.428  12.850  1.00  0.00    +0.000 C 
ATOM     34  N6  UNL A   1      53.862  20.605  13.846  1.00  0.00    +0.000 N 
ATOM     35  C25 UNL A   1      53.154  21.317  14.805  1.00  0.00    +0.000 C 
ATOM     36  C26 UNL A   1      53.555  21.697  16.042  1.00  0.00    +0.000 C 
ATOM     48  C33 UNL A   1      54.849  21.404  16.600  1.00  0.00    +0.000 C 
ATOM     49  C34 UNL A   1      55.327  21.687  17.867  1.00  0.00    +0.000 C 
ATOM     50  C35 UNL A   1      56.655  21.250  17.942  1.00  0.00    +0.000 C 
ATOM     51  C36 UNL A   1      56.989  20.655  16.735  1.00  0.00    +0.000 C 
ATOM     52  N7  UNL A   1      55.873  20.760  15.921  1.00  0.00    +0.000 N 
ATOM     53  C37 UNL A   1      58.232  20.036  16.354  1.00  0.00    +0.000 C 
ATOM     65  C44 UNL A   1      58.480  19.464  15.151  1.00  0.00    +0.000 C 
ATOM     66  N8  UNL A   1      57.637  19.338  14.055  1.00  0.00    +0.000 N 
ATOM     67  C45 UNL A   1      58.335  18.721  13.134  1.00  0.00    +0.000 C 
ATOM     68  C46 UNL A   1      57.917  18.299  11.752  1.00  0.00    +0.000 C 
ATOM     80  C53 UNL A   1      56.655  18.531  11.345  1.00  0.00    +0.000 C 
ATOM     81  C54 UNL A   1      56.104  18.171  10.042  1.00  0.00    +0.000 C 
ATOM     82  C55 UNL A   1      54.832  18.593   9.972  1.00  0.00    +0.000 C 
ATOM     83  C56 UNL A   1      54.467  19.224  11.240  1.00  0.00    +0.000 C 
ATOM     84  N9  UNL A   1      55.608  19.136  11.997  1.00  0.00    +0.000 N 
ATOM     85  C57 UNL A   1      59.714  18.409  13.532  1.00  0.00    +0.000 C 
ATOM     86  C58 UNL A   1      59.738  18.850  14.782  1.00  0.00    +0.000 C 
ATOM     87  C59 UNL A   1      51.844  21.583  14.252  1.00  0.00    +0.000 C 
ATOM     88  C60 UNL A   1      51.694  20.997  13.073  1.00  0.00    +0.000 C 
ATOM    117  H27 UNL A   1      54.797  22.142  18.626  1.00  0.00    +0.000 H 
ATOM    118  H28 UNL A   1      57.279  21.353  18.757  1.00  0.00    +0.000 H 
ATOM    119  H29 UNL A   1      55.815  20.427  14.996  1.00  0.00    +0.000 H 
ATOM    120  H30 UNL A   1      56.613  17.673   9.295  1.00  0.00    +0.000 H 
ATOM    121  H31 UNL A   1      54.211  18.489   9.155  1.00  0.00    +0.000 H 
ATOM    122  H32 UNL A   1      55.672  19.473  12.920  1.00  0.00    +0.000 H 
ATOM    123  H33 UNL A   1      60.466  17.963  12.983  1.00  0.00    +0.000 H 
ATOM    124  H34 UNL A   1      60.552  18.765  15.413  1.00  0.00    +0.000 H 
ATOM    125  H35 UNL A   1      51.120  22.155  14.716  1.00  0.00    +0.000 H 
ATOM    126  H36 UNL A   1      50.858  20.952  12.471  1.00  0.00    +0.000 H 
ENDROOT
BRANCH   32   31
ATOM    115  H25 UNL A   1      49.825  17.794   9.143  1.00  0.00    +0.000 H 
ATOM    116  H26 UNL A   1      51.480  17.813  10.920  1.00  0.00    +0.000 H 
ATOM     89  C61 UNL A   1      52.006  20.892   9.690  1.00  0.00    +0.000 C 
ATOM     90  C62 UNL A   1      51.005  20.908   8.723  1.00  0.00    +0.000 C 
ATOM    127  H37 UNL A   1      52.610  21.720   9.817  1.00  0.00    +0.000 H 
ATOM     28  C19 UNL A   1      50.249  19.756   8.485  1.00  0.00    +0.000 C 
ATOM     29  C20 UNL A   1      50.413  18.629   9.293  1.00  0.00    +0.000 C 
ATOM     30  C21 UNL A   1      51.374  18.636  10.306  1.00  0.00    +0.000 C 
ATOM     31  C22 UNL A   1      52.198  19.757  10.493  1.00  0.00    +0.000 C 
ATOM    128  H38 UNL A   1      50.821  21.769   8.184  1.00  0.00    +0.000 H 
BRANCH   28   26
ATOM     26  C18 UNL A   1      49.257  19.710   7.389  1.00  0.00    +0.000 C 
ATOM     27  O3  UNL A   1      48.066  19.873   7.640  1.00  0.00    +0.000 O 
BRANCH   26   25
ATOM     25  N5  UNL A   1      49.667  19.465   6.104  1.00  0.00    +0.000 N 
ATOM    114  H24 UNL A   1      49.322  20.090   5.424  1.00  0.00    +0.000 H 
BRANCH   25   24
ATOM    113  H23 UNL A   1      51.443  18.443   6.175  1.00  0.00    +0.000 H 
ATOM    112  H22 UNL A   1      50.726  18.591   4.565  1.00  0.00    +0.000 H 
ATOM     24  C17 UNL A   1      50.539  18.416   5.603  1.00  0.00    +0.000 C 
BRANCH   24   23
ATOM    111  H21 UNL A   1      49.761  16.892   6.811  1.00  0.00    +0.000 H 
ATOM    110  H20 UNL A   1      50.607  16.314   5.346  1.00  0.00    +0.000 H 
ATOM     23  C16 UNL A   1      49.927  17.028   5.763  1.00  0.00    +0.000 C 
BRANCH   23   22
ATOM    108  H18 UNL A   1      48.354  17.726   4.523  1.00  0.00    +0.000 H 
ATOM    109  H19 UNL A   1      48.654  15.962   4.484  1.00  0.00    +0.000 H 
ATOM     22  C15 UNL A   1      48.566  16.842   5.085  1.00  0.00    +0.000 C 
BRANCH   22   21
ATOM    106  H16 UNL A   1      47.065  15.582   5.900  1.00  0.00    +0.000 H 
ATOM    107  H17 UNL A   1      47.757  16.793   7.021  1.00  0.00    +0.000 H 
ATOM     21  C14 UNL A   1      47.391  16.591   6.036  1.00  0.00    +0.000 C 
BRANCH   21   20
ATOM    105  H15 UNL A   1      46.557  18.513   5.801  1.00  0.00    +0.000 H 
ATOM     20  C13 UNL A   1      46.181  17.511   5.834  1.00  0.00    +0.000 C 
ATOM    104  H14 UNL A   1      45.499  17.352   6.644  1.00  0.00    +0.000 H 
BRANCH   20   19
ATOM     19  C12 UNL A   1      45.432  17.279   4.525  1.00  0.00    +0.000 C 
ATOM    102  H12 UNL A   1      45.773  16.365   4.083  1.00  0.00    +0.000 H 
ATOM    103  H13 UNL A   1      44.384  17.221   4.735  1.00  0.00    +0.000 H 
BRANCH   19   18
ATOM     18  N4  UNL A   1      45.661  18.371   3.599  1.00  0.00    +0.000 N 
ATOM    101  H11 UNL A   1      46.107  18.111   2.761  1.00  0.00    +0.000 H 
BRANCH   18   16
ATOM     17  O2  UNL A   1      46.170  20.415   4.285  1.00  0.00    +0.000 O 
ATOM     16  C11 UNL A   1      45.359  19.696   3.693  1.00  0.00    +0.000 C 
BRANCH   16    2
ATOM      2  C2  UNL A   1      44.079  20.292   3.097  1.00  0.00    +0.000 C 
ATOM     94  H4  UNL A   1      43.378  20.533   3.868  1.00  0.00    +0.000 H 
BRANCH    2    1
ATOM      1  C1  UNL A   1      44.306  21.658   2.457  1.00  0.00    +0.000 C 
ATOM     91  H1  UNL A   1      43.464  22.288   2.654  1.00  0.00    +0.000 H 
ATOM     92  H2  UNL A   1      44.425  21.541   1.400  1.00  0.00    +0.000 H 
ATOM     93  H3  UNL A   1      45.188  22.102   2.869  1.00  0.00    +0.000 H 
ENDBRANCH    2    1
BRANCH    2    3
ATOM      3  S1  UNL A   1      43.290  19.021   2.045  1.00  0.00    +0.000 S 
BRANCH    3    4
ATOM     97  H7  UNL A   1      36.614  22.108  -0.189  1.00  0.00    +0.000 H 
ATOM     98  H8  UNL A   1      36.991  20.636   1.709  1.00  0.00    +0.000 H 
ATOM      4  C3  UNL A   1      41.675  19.656   1.863  1.00  0.00    +0.000 C 
ATOM      5  N1  UNL A   1      41.481  20.480   0.886  1.00  0.00    +0.000 N 
ATOM      6  C4  UNL A   1      40.172  20.921   0.644  1.00  0.00    +0.000 C 
ATOM      7  C5  UNL A   1      39.942  21.772  -0.440  1.00  0.00    +0.000 C 
ATOM      8  C6  UNL A   1      38.647  22.203  -0.745  1.00  0.00    +0.000 C 
ATOM      9  C7  UNL A   1      37.569  21.789   0.036  1.00  0.00    +0.000 C 
ATOM     10  C8  UNL A   1      37.784  20.943   1.124  1.00  0.00    +0.000 C 
ATOM     11  C9  UNL A   1      39.084  20.514   1.418  1.00  0.00    +0.000 C 
ATOM     12  C10 UNL A   1      39.340  19.592   2.538  1.00  0.00    +0.000 C 
ATOM     13  O1  UNL A   1      38.418  19.188   3.246  1.00  0.00    +0.000 O 
ATOM     14  N2  UNL A   1      40.669  19.200   2.709  1.00  0.00    +0.000 N 
ATOM     95  H5  UNL A   1      40.735  22.085  -1.022  1.00  0.00    +0.000 H 
ATOM     96  H6  UNL A   1      38.489  22.828  -1.551  1.00  0.00    +0.000 H 
BRANCH   14   15
ATOM     99  H9  UNL A   1      41.853  17.971   3.941  1.00  0.00    +0.000 H 
ATOM    100  H10 UNL A   1      40.203  17.992   4.370  1.00  0.00    +0.000 H 
ATOM     15  N3  UNL A   1      40.936  18.293   3.785  1.00  0.00    +0.000 N 
ENDBRANCH   14   15
ENDBRANCH    3    4
ENDBRANCH    2    3
ENDBRANCH   16    2
ENDBRANCH   18   16
ENDBRANCH   19   18
ENDBRANCH   20   19
ENDBRANCH   21   20
ENDBRANCH   22   21
ENDBRANCH   23   22
ENDBRANCH   24   23
ENDBRANCH   25   24
ENDBRANCH   26   25
ENDBRANCH   28   26
ENDBRANCH   32   31
BRANCH   36   37
ATOM     37  C27 UNL A   1      52.577  22.471  16.878  1.00  0.00    +0.000 C 
ATOM     38  C28 UNL A   1      52.387  23.849  16.698  1.00  0.00    +0.000 C 
ATOM     39  F1  UNL A   1      53.109  24.518  15.785  1.00  0.00    +0.000 F 
ATOM     40  C29 UNL A   1      51.483  24.557  17.485  1.00  0.00    +0.000 C 
ATOM     41  F2  UNL A   1      51.356  25.882  17.331  1.00  0.00    +0.000 F 
ATOM     42  C30 UNL A   1      50.727  23.896  18.441  1.00  0.00    +0.000 C 
ATOM     43  F3  UNL A   1      49.855  24.578  19.197  1.00  0.00    +0.000 F 
ATOM     44  C31 UNL A   1      50.880  22.529  18.621  1.00  0.00    +0.000 C 
ATOM     45  F4  UNL A   1      50.142  21.887  19.536  1.00  0.00    +0.000 F 
ATOM     46  C32 UNL A   1      51.805  21.824  17.854  1.00  0.00    +0.000 C 
ATOM     47  F5  UNL A   1      51.944  20.506  18.063  1.00  0.00    +0.000 F 
ENDBRANCH   36   37
BRANCH   53   54
ATOM     54  C38 UNL A   1      59.334  20.000  17.371  1.00  0.00    +0.000 C 
ATOM     55  C39 UNL A   1      59.579  18.860  18.149  1.00  0.00    +0.000 C 
ATOM     56  F6  UNL A   1      58.786  17.782  18.036  1.00  0.00    +0.000 F 
ATOM     57  C40 UNL A   1      60.618  18.835  19.075  1.00  0.00    +0.000 C 
ATOM     58  F7  UNL A   1      60.808  17.750  19.838  1.00  0.00    +0.000 F 
ATOM     59  C41 UNL A   1      61.449  19.936  19.218  1.00  0.00    +0.000 C 
ATOM     60  F8  UNL A   1      62.455  19.908  20.105  1.00  0.00    +0.000 F 
ATOM     61  C42 UNL A   1      61.237  21.068  18.447  1.00  0.00    +0.000 C 
ATOM     62  F9  UNL A   1      62.045  22.129  18.575  1.00  0.00    +0.000 F 
ATOM     63  C43 UNL A   1      60.181  21.106  17.540  1.00  0.00    +0.000 C 
ATOM     64  F10 UNL A   1      59.992  22.219  16.815  1.00  0.00    +0.000 F 
ENDBRANCH   53   54
BRANCH   68   69
ATOM     69  C47 UNL A   1      58.865  17.602  10.846  1.00  0.00    +0.000 C 
ATOM     70  C48 UNL A   1      59.716  18.330  10.003  1.00  0.00    +0.000 C 
ATOM     71  F11 UNL A   1      59.657  19.669   9.987  1.00  0.00    +0.000 F 
ATOM     72  C49 UNL A   1      60.608  17.683   9.150  1.00  0.00    +0.000 C 
ATOM     73  F12 UNL A   1      61.385  18.402   8.327  1.00  0.00    +0.000 F 
ATOM     74  C50 UNL A   1      60.683  16.299   9.141  1.00  0.00    +0.000 C 
ATOM     75  F13 UNL A   1      61.545  15.677   8.325  1.00  0.00    +0.000 F 
ATOM     76  C51 UNL A   1      59.859  15.558   9.976  1.00  0.00    +0.000 C 
ATOM     77  F14 UNL A   1      59.937  14.221   9.979  1.00  0.00    +0.000 F 
ATOM     78  C52 UNL A   1      58.950  16.203  10.812  1.00  0.00    +0.000 C 
ATOM     79  F15 UNL A   1      58.159  15.463  11.603  1.00  0.00    +0.000 F 
ENDBRANCH   68   69
TORSDOF 19
ENDMDL
MODEL 3
REMARK VINA RESULT:     -11.3     41.783     47.534
ROOT
ATOM     32  C23 UNL A   1      10.658   3.058  21.259  1.00  0.00    +0.000 C 
ATOM     33  C24 UNL A   1      11.188   3.507  19.927  1.00  0.00    +0.000 C 
ATOM     34  N6  UNL A   1      10.990   4.637  19.295  1.00  0.00    +0.000 N 
ATOM     35  C25 UNL A   1      11.746   4.557  18.133  1.00  0.00    +0.000 C 
ATOM     36  C26 UNL A   1      11.833   5.449  17.119  1.00  0.00    +0.000 C 
ATOM     48  C33 UNL A   1      11.113   6.695  17.071  1.00  0.00    +0.000 C 
ATOM     49  C34 UNL A   1      11.083   7.636  16.057  1.00  0.00    +0.000 C 
ATOM     50  C35 UNL A   1      10.278   8.703  16.474  1.00  0.00    +0.000 C 
ATOM     51  C36 UNL A   1       9.771   8.404  17.730  1.00  0.00    +0.000 C 
ATOM     52  N7  UNL A   1      10.295   7.172  18.085  1.00  0.00    +0.000 N 
ATOM     53  C37 UNL A   1       8.876   9.185  18.545  1.00  0.00    +0.000 C 
ATOM     65  C44 UNL A   1       8.416   8.818  19.766  1.00  0.00    +0.000 C 
ATOM     66  N8  UNL A   1       8.678   7.660  20.485  1.00  0.00    +0.000 N 
ATOM     67  C45 UNL A   1       8.011   7.774  21.606  1.00  0.00    +0.000 C 
ATOM     68  C46 UNL A   1       7.907   6.804  22.751  1.00  0.00    +0.000 C 
ATOM     80  C53 UNL A   1       8.541   5.619  22.671  1.00  0.00    +0.000 C 
ATOM     81  C54 UNL A   1       8.524   4.577  23.692  1.00  0.00    +0.000 C 
ATOM     82  C55 UNL A   1       9.297   3.556  23.290  1.00  0.00    +0.000 C 
ATOM     83  C56 UNL A   1       9.838   3.859  21.966  1.00  0.00    +0.000 C 
ATOM     84  N9  UNL A   1       9.331   5.100  21.674  1.00  0.00    +0.000 N 
ATOM     85  C57 UNL A   1       7.268   9.035  21.738  1.00  0.00    +0.000 C 
ATOM     86  C58 UNL A   1       7.520   9.618  20.575  1.00  0.00    +0.000 C 
ATOM     87  C59 UNL A   1      12.445   3.290  18.171  1.00  0.00    +0.000 C 
ATOM     88  C60 UNL A   1      12.082   2.575  19.226  1.00  0.00    +0.000 C 
ATOM    117  H27 UNL A   1      11.569   7.565  15.150  1.00  0.00    +0.000 H 
ATOM    118  H28 UNL A   1      10.093   9.565  15.939  1.00  0.00    +0.000 H 
ATOM    119  H29 UNL A   1      10.114   6.703  18.932  1.00  0.00    +0.000 H 
ATOM    120  H30 UNL A   1       8.000   4.619  24.581  1.00  0.00    +0.000 H 
ATOM    121  H31 UNL A   1       9.481   2.696  23.830  1.00  0.00    +0.000 H 
ATOM    122  H32 UNL A   1       9.515   5.575  20.831  1.00  0.00    +0.000 H 
ATOM    123  H33 UNL A   1       6.700   9.378  22.530  1.00  0.00    +0.000 H 
ATOM    124  H34 UNL A   1       7.126  10.526  20.282  1.00  0.00    +0.000 H 
ATOM    125  H35 UNL A   1      13.136   2.984  17.468  1.00  0.00    +0.000 H 
ATOM    126  H36 UNL A   1      12.356   1.614  19.486  1.00  0.00    +0.000 H 
ENDROOT
BRANCH   32   31
ATOM    115  H25 UNL A   1      13.499   0.371  23.727  1.00  0.00    +0.000 H 
ATOM    116  H26 UNL A   1      12.750   2.528  22.901  1.00  0.00    +0.000 H 
ATOM     89  C61 UNL A   1      10.354   0.600  21.556  1.00  0.00    +0.000 C 
ATOM     90  C62 UNL A   1      10.741  -0.625  22.094  1.00  0.00    +0.000 C 
ATOM    127  H37 UNL A   1       9.520   0.653  20.949  1.00  0.00    +0.000 H 
ATOM     28  C19 UNL A   1      11.921  -0.717  22.837  1.00  0.00    +0.000 C 
ATOM     29  C20 UNL A   1      12.650   0.435  23.142  1.00  0.00    +0.000 C 
ATOM     30  C21 UNL A   1      12.226   1.673  22.656  1.00  0.00    +0.000 C 
ATOM     31  C22 UNL A   1      11.091   1.761  21.835  1.00  0.00    +0.000 C 
ATOM    128  H38 UNL A   1      10.156  -1.462  21.944  1.00  0.00    +0.000 H 
BRANCH   28   26
ATOM     26  C18 UNL A   1      12.414  -2.023  23.324  1.00  0.00    +0.000 C 
ATOM     27  O3  UNL A   1      12.168  -3.043  22.686  1.00  0.00    +0.000 O 
BRANCH   26   25
ATOM     25  N5  UNL A   1      13.126  -2.093  24.494  1.00  0.00    +0.000 N 
ATOM    114  H24 UNL A   1      14.106  -2.108  24.392  1.00  0.00    +0.000 H 
BRANCH   25   24
ATOM    113  H23 UNL A   1      12.844  -3.126  26.243  1.00  0.00    +0.000 H 
ATOM    112  H22 UNL A   1      11.590  -1.939  25.862  1.00  0.00    +0.000 H 
ATOM     24  C17 UNL A   1      12.638  -2.148  25.862  1.00  0.00    +0.000 C 
BRANCH   24   23
ATOM    111  H21 UNL A   1      13.806  -1.706  27.544  1.00  0.00    +0.000 H 
ATOM    110  H20 UNL A   1      12.604  -0.450  27.129  1.00  0.00    +0.000 H 
ATOM     23  C16 UNL A   1      13.339  -1.139  26.767  1.00  0.00    +0.000 C 
BRANCH   23   22
ATOM    108  H18 UNL A   1      15.256  -1.005  25.867  1.00  0.00    +0.000 H 
ATOM    109  H19 UNL A   1      14.013   0.113  25.226  1.00  0.00    +0.000 H 
ATOM     22  C15 UNL A   1      14.454  -0.334  26.092  1.00  0.00    +0.000 C 
BRANCH   22   21
ATOM    106  H16 UNL A   1      14.965   0.545  27.956  1.00  0.00    +0.000 H 
ATOM    107  H17 UNL A   1      16.022   0.973  26.576  1.00  0.00    +0.000 H 
ATOM     21  C14 UNL A   1      15.021   0.821  26.924  1.00  0.00    +0.000 C 
BRANCH   21   20
ATOM    105  H15 UNL A   1      13.440   2.137  27.386  1.00  0.00    +0.000 H 
ATOM     20  C13 UNL A   1      14.302   2.164  26.752  1.00  0.00    +0.000 C 
ATOM    104  H14 UNL A   1      14.051   2.281  25.718  1.00  0.00    +0.000 H 
BRANCH   20   19
ATOM     19  C12 UNL A   1      15.128   3.373  27.183  1.00  0.00    +0.000 C 
ATOM    102  H12 UNL A   1      16.154   3.207  26.926  1.00  0.00    +0.000 H 
ATOM    103  H13 UNL A   1      14.755   4.241  26.680  1.00  0.00    +0.000 H 
BRANCH   19   18
ATOM     18  N4  UNL A   1      15.024   3.584  28.615  1.00  0.00    +0.000 N 
ATOM    101  H11 UNL A   1      15.566   2.970  29.160  1.00  0.00    +0.000 H 
BRANCH   18   16
ATOM     17  O2  UNL A   1      14.715   5.659  29.329  1.00  0.00    +0.000 O 
ATOM     16  C11 UNL A   1      14.304   4.493  29.330  1.00  0.00    +0.000 C 
BRANCH   16    2
ATOM      2  C2  UNL A   1      13.038   4.114  30.104  1.00  0.00    +0.000 C 
ATOM     94  H4  UNL A   1      12.667   3.163  29.782  1.00  0.00    +0.000 H 
BRANCH    2    1
ATOM      1  C1  UNL A   1      13.305   3.850  31.582  1.00  0.00    +0.000 C 
ATOM     91  H1  UNL A   1      14.213   3.291  31.685  1.00  0.00    +0.000 H 
ATOM     92  H2  UNL A   1      12.493   3.291  31.998  1.00  0.00    +0.000 H 
ATOM     93  H3  UNL A   1      13.399   4.782  32.098  1.00  0.00    +0.000 H 
ENDBRANCH    2    1
BRANCH    2    3
ATOM      3  S1  UNL A   1      11.740   5.344  29.718  1.00  0.00    +0.000 S 
BRANCH    3    4
ATOM     97  H7  UNL A   1       8.003   0.196  25.401  1.00  0.00    +0.000 H 
ATOM     98  H8  UNL A   1       7.238   2.415  26.036  1.00  0.00    +0.000 H 
ATOM      4  C3  UNL A   1      10.712   4.450  28.626  1.00  0.00    +0.000 C 
ATOM      5  N1  UNL A   1      11.138   3.290  28.245  1.00  0.00    +0.000 N 
ATOM      6  C4  UNL A   1      10.288   2.500  27.459  1.00  0.00    +0.000 C 
ATOM      7  C5  UNL A   1      10.717   1.225  27.082  1.00  0.00    +0.000 C 
ATOM      8  C6  UNL A   1       9.885   0.385  26.335  1.00  0.00    +0.000 C 
ATOM      9  C7  UNL A   1       8.616   0.816  25.954  1.00  0.00    +0.000 C 
ATOM     10  C8  UNL A   1       8.175   2.088  26.318  1.00  0.00    +0.000 C 
ATOM     11  C9  UNL A   1       9.014   2.919  27.070  1.00  0.00    +0.000 C 
ATOM     12  C10 UNL A   1       8.565   4.254  27.503  1.00  0.00    +0.000 C 
ATOM     13  O1  UNL A   1       7.447   4.671  27.202  1.00  0.00    +0.000 O 
ATOM     14  N2  UNL A   1       9.470   4.974  28.283  1.00  0.00    +0.000 N 
ATOM     95  H5  UNL A   1      11.657   0.900  27.358  1.00  0.00    +0.000 H 
ATOM     96  H6  UNL A   1      10.212  -0.556  26.066  1.00  0.00    +0.000 H 
BRANCH   14   15
ATOM     99  H9  UNL A   1       9.653   7.042  28.640  1.00  0.00    +0.000 H 
ATOM    100  H10 UNL A   1       8.149   6.390  29.110  1.00  0.00    +0.000 H 
ATOM     15  N3  UNL A   1       9.046   6.270  28.724  1.00  0.00    +0.000 N 
ENDBRANCH   14   15
ENDBRANCH    3    4
ENDBRANCH    2    3
ENDBRANCH   16    2
ENDBRANCH   18   16
ENDBRANCH   19   18
ENDBRANCH   20   19
ENDBRANCH   21   20
ENDBRANCH   22   21
ENDBRANCH   23   22
ENDBRANCH   24   23
ENDBRANCH   25   24
ENDBRANCH   26   25
ENDBRANCH   28   26
ENDBRANCH   32   31
BRANCH   36   37
ATOM     37  C27 UNL A   1      12.742   5.107  15.973  1.00  0.00    +0.000 C 
ATOM     38  C28 UNL A   1      12.275   4.413  14.847  1.00  0.00    +0.000 C 
ATOM     39  F1  UNL A   1      10.998   4.005  14.786  1.00  0.00    +0.000 F 
ATOM     40  C29 UNL A   1      13.130   4.096  13.795  1.00  0.00    +0.000 C 
ATOM     41  F2  UNL A   1      12.674   3.386  12.754  1.00  0.00    +0.000 F 
ATOM     42  C30 UNL A   1      14.456   4.498  13.832  1.00  0.00    +0.000 C 
ATOM     43  F3  UNL A   1      15.278   4.194  12.817  1.00  0.00    +0.000 F 
ATOM     44  C31 UNL A   1      14.934   5.207  14.924  1.00  0.00    +0.000 C 
ATOM     45  F4  UNL A   1      16.213   5.606  14.955  1.00  0.00    +0.000 F 
ATOM     46  C32 UNL A   1      14.088   5.499  15.991  1.00  0.00    +0.000 C 
ATOM     47  F5  UNL A   1      14.584   6.171  17.041  1.00  0.00    +0.000 F 
ENDBRANCH   36   37
BRANCH   53   54
ATOM     54  C38 UNL A   1       8.396  10.496  17.995  1.00  0.00    +0.000 C 
ATOM     55  C39 UNL A   1       9.109  11.684  18.203  1.00  0.00    +0.000 C 
ATOM     56  F6  UNL A   1      10.221  11.683  18.954  1.00  0.00    +0.000 F 
ATOM     57  C40 UNL A   1       8.660  12.889  17.670  1.00  0.00    +0.000 C 
ATOM     58  F7  UNL A   1       9.334  14.021  17.916  1.00  0.00    +0.000 F 
ATOM     59  C41 UNL A   1       7.511  12.922  16.894  1.00  0.00    +0.000 C 
ATOM     60  F8  UNL A   1       7.085  14.083  16.375  1.00  0.00    +0.000 F 
ATOM     61  C42 UNL A   1       6.799  11.756  16.662  1.00  0.00    +0.000 C 
ATOM     62  F9  UNL A   1       5.695  11.784  15.904  1.00  0.00    +0.000 F 
ATOM     63  C43 UNL A   1       7.231  10.554  17.217  1.00  0.00    +0.000 C 
ATOM     64  F10 UNL A   1       6.516   9.443  16.984  1.00  0.00    +0.000 F 
ENDBRANCH   53   54
BRANCH   68   69
ATOM     69  C47 UNL A   1       7.089   7.121  23.949  1.00  0.00    +0.000 C 
ATOM     70  C48 UNL A   1       7.614   7.901  24.989  1.00  0.00    +0.000 C 
ATOM     71  F11 UNL A   1       8.878   8.344  24.920  1.00  0.00    +0.000 F 
ATOM     72  C49 UNL A   1       6.854   8.201  26.116  1.00  0.00    +0.000 C 
ATOM     73  F12 UNL A   1       7.392   8.919  27.113  1.00  0.00    +0.000 F 
ATOM     74  C50 UNL A   1       5.547   7.749  26.216  1.00  0.00    +0.000 C 
ATOM     75  F13 UNL A   1       4.814   8.043  27.299  1.00  0.00    +0.000 F 
ATOM     76  C51 UNL A   1       5.002   6.985  25.193  1.00  0.00    +0.000 C 
ATOM     77  F14 UNL A   1       3.736   6.556  25.281  1.00  0.00    +0.000 F 
ATOM     78  C52 UNL A   1       5.770   6.664  24.077  1.00  0.00    +0.000 C 
ATOM     79  F15 UNL A   1       5.221   5.917  23.107  1.00  0.00    +0.000 F 
ENDBRANCH   68   69
TORSDOF 19
ENDMDL
MODEL 4
REMARK VINA RESULT:     -11.2      0.864      2.167
ROOT
ATOM     32  C23 UNL A   1      53.450  19.816  11.414  1.00  0.00    +0.000 C 
ATOM     33  C24 UNL A   1      54.800  19.172  11.271  1.00  0.00    +0.000 C 
ATOM     34  N6  UNL A   1      55.777  19.096  12.139  1.00  0.00    +0.000 N 
ATOM     35  C25 UNL A   1      56.775  18.355  11.519  1.00  0.00    +0.000 C 
ATOM     36  C26 UNL A   1      58.009  18.048  11.982  1.00  0.00    +0.000 C 
ATOM     48  C33 UNL A   1      58.523  18.466  13.260  1.00  0.00    +0.000 C 
ATOM     49  C34 UNL A   1      59.784  18.262  13.792  1.00  0.00    +0.000 C 
ATOM     50  C35 UNL A   1      59.811  18.812  15.079  1.00  0.00    +0.000 C 
ATOM     51  C36 UNL A   1      58.580  19.398  15.330  1.00  0.00    +0.000 C 
ATOM     52  N7  UNL A   1      57.799  19.174  14.207  1.00  0.00    +0.000 N 
ATOM     53  C37 UNL A   1      58.147  20.109  16.506  1.00  0.00    +0.000 C 
ATOM     65  C44 UNL A   1      56.923  20.664  16.673  1.00  0.00    +0.000 C 
ATOM     66  N8  UNL A   1      55.847  20.686  15.796  1.00  0.00    +0.000 N 
ATOM     67  C45 UNL A   1      54.891  21.332  16.414  1.00  0.00    +0.000 C 
ATOM     68  C46 UNL A   1      53.510  21.676  15.927  1.00  0.00    +0.000 C 
ATOM     80  C53 UNL A   1      53.144  21.325  14.680  1.00  0.00    +0.000 C 
ATOM     81  C54 UNL A   1      51.847  21.598  14.068  1.00  0.00    +0.000 C 
ATOM     82  C55 UNL A   1      51.825  21.068  12.835  1.00  0.00    +0.000 C 
ATOM     83  C56 UNL A   1      53.119  20.446  12.558  1.00  0.00    +0.000 C 
ATOM     84  N9  UNL A   1      53.841  20.653  13.706  1.00  0.00    +0.000 N 
ATOM     85  C57 UNL A   1      55.242  21.772  17.771  1.00  0.00    +0.000 C 
ATOM     86  C58 UNL A   1      56.503  21.372  17.865  1.00  0.00    +0.000 C 
ATOM     87  C59 UNL A   1      56.265  17.962  10.223  1.00  0.00    +0.000 C 
ATOM     88  C60 UNL A   1      55.075  18.498   9.994  1.00  0.00    +0.000 C 
ATOM    117  H27 UNL A   1      60.570  17.786  13.322  1.00  0.00    +0.000 H 
ATOM    118  H28 UNL A   1      60.611  18.787  15.730  1.00  0.00    +0.000 H 
ATOM    119  H29 UNL A   1      56.867  19.473  14.098  1.00  0.00    +0.000 H 
ATOM    120  H30 UNL A   1      51.073  22.115  14.513  1.00  0.00    +0.000 H 
ATOM    121  H31 UNL A   1      51.022  21.095  12.187  1.00  0.00    +0.000 H 
ATOM    122  H32 UNL A   1      54.771  20.350  13.821  1.00  0.00    +0.000 H 
ATOM    123  H33 UNL A   1      54.661  22.263  18.469  1.00  0.00    +0.000 H 
ATOM    124  H34 UNL A   1      57.108  21.544  18.683  1.00  0.00    +0.000 H 
ATOM    125  H35 UNL A   1      56.764  17.344   9.563  1.00  0.00    +0.000 H 
ATOM    126  H36 UNL A   1      54.495  18.454   9.142  1.00  0.00    +0.000 H 
ENDROOT
BRANCH   32   31
ATOM    115  H25 UNL A   1      50.111  17.626   9.083  1.00  0.00    +0.000 H 
ATOM    116  H26 UNL A   1      51.652  17.840  10.947  1.00  0.00    +0.000 H 
ATOM     89  C61 UNL A   1      52.339  20.726   9.375  1.00  0.00    +0.000 C 
ATOM     90  C62 UNL A   1      51.399  20.637   8.350  1.00  0.00    +0.000 C 
ATOM    127  H37 UNL A   1      52.956  21.551   9.435  1.00  0.00    +0.000 H 
ATOM     28  C19 UNL A   1      50.629  19.480   8.211  1.00  0.00    +0.000 C 
ATOM     29  C20 UNL A   1      50.711  18.462   9.164  1.00  0.00    +0.000 C 
ATOM     30  C21 UNL A   1      51.607  18.580  10.228  1.00  0.00    +0.000 C 
ATOM     31  C22 UNL A   1      52.449  19.699  10.325  1.00  0.00    +0.000 C 
ATOM    128  H38 UNL A   1      51.273  21.426   7.696  1.00  0.00    +0.000 H 
BRANCH   28   26
ATOM     26  C18 UNL A   1      49.706  19.313   7.068  1.00  0.00    +0.000 C 
ATOM     27  O3  UNL A   1      50.120  19.472   5.923  1.00  0.00    +0.000 O 
BRANCH   26   25
ATOM     25  N5  UNL A   1      48.389  19.002   7.290  1.00  0.00    +0.000 N 
ATOM    114  H24 UNL A   1      48.156  18.794   8.225  1.00  0.00    +0.000 H 
BRANCH   25   24
ATOM    113  H23 UNL A   1      47.578  19.483   5.469  1.00  0.00    +0.000 H 
ATOM    112  H22 UNL A   1      46.418  19.362   6.798  1.00  0.00    +0.000 H 
ATOM     24  C17 UNL A   1      47.288  18.939   6.343  1.00  0.00    +0.000 C 
BRANCH   24   23
ATOM    111  H21 UNL A   1      46.707  16.981   6.811  1.00  0.00    +0.000 H 
ATOM    110  H20 UNL A   1      47.836  17.107   5.430  1.00  0.00    +0.000 H 
ATOM     23  C16 UNL A   1      46.972  17.508   5.919  1.00  0.00    +0.000 C 
BRANCH   23   22
ATOM    108  H18 UNL A   1      45.342  16.404   5.127  1.00  0.00    +0.000 H 
ATOM    109  H19 UNL A   1      45.122  18.179   5.195  1.00  0.00    +0.000 H 
ATOM     22  C15 UNL A   1      45.780  17.367   4.967  1.00  0.00    +0.000 C 
BRANCH   22   21
ATOM    106  H16 UNL A   1      47.168  17.363   3.362  1.00  0.00    +0.000 H 
ATOM    107  H17 UNL A   1      45.532  16.749   2.977  1.00  0.00    +0.000 H 
ATOM     21  C14 UNL A   1      46.113  17.496   3.477  1.00  0.00    +0.000 C 
BRANCH   21   20
ATOM    105  H15 UNL A   1      45.434  18.621   1.829  1.00  0.00    +0.000 H 
ATOM     20  C13 UNL A   1      45.729  18.834   2.836  1.00  0.00    +0.000 C 
ATOM    104  H14 UNL A   1      46.575  19.487   2.889  1.00  0.00    +0.000 H 
BRANCH   20   19
ATOM     19  C12 UNL A   1      44.546  19.529   3.504  1.00  0.00    +0.000 C 
ATOM    102  H12 UNL A   1      44.306  19.017   4.413  1.00  0.00    +0.000 H 
ATOM    103  H13 UNL A   1      44.816  20.544   3.709  1.00  0.00    +0.000 H 
BRANCH   19   18
ATOM     18  N4  UNL A   1      43.386  19.523   2.633  1.00  0.00    +0.000 N 
ATOM    101  H11 UNL A   1      42.844  18.703   2.679  1.00  0.00    +0.000 H 
BRANCH   18   16
ATOM     17  O2  UNL A   1      43.558  21.519   1.687  1.00  0.00    +0.000 O 
ATOM     16  C11 UNL A   1      42.919  20.464   1.766  1.00  0.00    +0.000 C 
BRANCH   16    2
ATOM      2  C2  UNL A   1      41.666  20.246   0.912  1.00  0.00    +0.000 C 
ATOM     94  H4  UNL A   1      41.207  21.181   0.666  1.00  0.00    +0.000 H 
BRANCH    2    1
ATOM      1  C1  UNL A   1      41.983  19.691  -0.472  1.00  0.00    +0.000 C 
ATOM     91  H1  UNL A   1      41.804  20.447  -1.209  1.00  0.00    +0.000 H 
ATOM     92  H2  UNL A   1      41.357  18.845  -0.670  1.00  0.00    +0.000 H 
ATOM     93  H3  UNL A   1      43.009  19.392  -0.510  1.00  0.00    +0.000 H 
ENDBRANCH    2    1
BRANCH    2    3
ATOM      3  S1  UNL A   1      40.450  19.309   1.907  1.00  0.00    +0.000 S 
BRANCH    3    4
ATOM     97  H7  UNL A   1      34.537  23.431  -0.764  1.00  0.00    +0.000 H 
ATOM     98  H8  UNL A   1      34.556  21.983   1.189  1.00  0.00    +0.000 H 
ATOM      4  C3  UNL A   1      38.982  20.209   1.622  1.00  0.00    +0.000 C 
ATOM      5  N1  UNL A   1      38.984  21.019   0.615  1.00  0.00    +0.000 N 
ATOM      6  C4  UNL A   1      37.787  21.673   0.291  1.00  0.00    +0.000 C 
ATOM      7  C5  UNL A   1      37.762  22.512  -0.825  1.00  0.00    +0.000 C 
ATOM      8  C6  UNL A   1      36.580  23.151  -1.211  1.00  0.00    +0.000 C 
ATOM      9  C7  UNL A   1      35.409  22.958  -0.479  1.00  0.00    +0.000 C 
ATOM     10  C8  UNL A   1      35.419  22.126   0.640  1.00  0.00    +0.000 C 
ATOM     11  C9  UNL A   1      36.608  21.488   1.015  1.00  0.00    +0.000 C 
ATOM     12  C10 UNL A   1      36.642  20.575   2.171  1.00  0.00    +0.000 C 
ATOM     13  O1  UNL A   1      35.630  20.363   2.838  1.00  0.00    +0.000 O 
ATOM     14  N2  UNL A   1      37.872  19.965   2.423  1.00  0.00    +0.000 N 
ATOM     95  H5  UNL A   1      38.626  22.662  -1.371  1.00  0.00    +0.000 H 
ATOM     96  H6  UNL A   1      36.574  23.765  -2.040  1.00  0.00    +0.000 H 
BRANCH   14   15
ATOM     99  H9  UNL A   1      37.953  18.091   3.380  1.00  0.00    +0.000 H 
ATOM    100  H10 UNL A   1      37.928  19.414   4.455  1.00  0.00    +0.000 H 
ATOM     15  N3  UNL A   1      37.922  19.063   3.535  1.00  0.00    +0.000 N 
ENDBRANCH   14   15
ENDBRANCH    3    4
ENDBRANCH    2    3
ENDBRANCH   16    2
ENDBRANCH   18   16
ENDBRANCH   19   18
ENDBRANCH   20   19
ENDBRANCH   21   20
ENDBRANCH   22   21
ENDBRANCH   23   22
ENDBRANCH   24   23
ENDBRANCH   25   24
ENDBRANCH   26   25
ENDBRANCH   28   26
ENDBRANCH   32   31
BRANCH   36   37
ATOM     37  C27 UNL A   1      58.893  17.218  11.096  1.00  0.00    +0.000 C 
ATOM     38  C28 UNL A   1      58.936  15.820  11.203  1.00  0.00    +0.000 C 
ATOM     39  F1  UNL A   1      58.204  15.191  12.136  1.00  0.00    +0.000 F 
ATOM     40  C29 UNL A   1      59.766  15.062  10.381  1.00  0.00    +0.000 C 
ATOM     41  F2  UNL A   1      59.830  13.733  10.537  1.00  0.00    +0.000 F 
ATOM     42  C30 UNL A   1      60.539  15.684   9.412  1.00  0.00    +0.000 C 
ATOM     43  F3  UNL A   1      61.336  14.954   8.619  1.00  0.00    +0.000 F 
ATOM     44  C31 UNL A   1      60.495  17.063   9.271  1.00  0.00    +0.000 C 
ATOM     45  F4  UNL A   1      61.233  17.663   8.327  1.00  0.00    +0.000 F 
ATOM     46  C32 UNL A   1      59.688  17.825  10.112  1.00  0.00    +0.000 C 
ATOM     47  F5  UNL A   1      59.679  19.158   9.963  1.00  0.00    +0.000 F 
ENDBRANCH   36   37
BRANCH   53   54
ATOM     54  C38 UNL A   1      59.133  20.268  17.626  1.00  0.00    +0.000 C 
ATOM     55  C39 UNL A   1      59.382  19.233  18.538  1.00  0.00    +0.000 C 
ATOM     56  F6  UNL A   1      58.695  18.083  18.459  1.00  0.00    +0.000 F 
ATOM     57  C40 UNL A   1      60.314  19.390  19.560  1.00  0.00    +0.000 C 
ATOM     58  F7  UNL A   1      60.506  18.404  20.446  1.00  0.00    +0.000 F 
ATOM     59  C41 UNL A   1      61.035  20.571  19.670  1.00  0.00    +0.000 C 
ATOM     60  F8  UNL A   1      61.938  20.717  20.650  1.00  0.00    +0.000 F 
ATOM     61  C42 UNL A   1      60.817  21.601  18.769  1.00  0.00    +0.000 C 
ATOM     62  F9  UNL A   1      61.519  22.737  18.866  1.00  0.00    +0.000 F 
ATOM     63  C43 UNL A   1      59.865  21.457  17.762  1.00  0.00    +0.000 C 
ATOM     64  F10 UNL A   1      59.667  22.475  16.911  1.00  0.00    +0.000 F 
ENDBRANCH   53   54
BRANCH   68   69
ATOM     69  C47 UNL A   1      52.560  22.423  16.789  1.00  0.00    +0.000 C 
ATOM     70  C48 UNL A   1      52.341  23.793  16.593  1.00  0.00    +0.000 C 
ATOM     71  F11 UNL A   1      53.017  24.450  15.638  1.00  0.00    +0.000 F 
ATOM     72  C49 UNL A   1      51.452  24.502  17.398  1.00  0.00    +0.000 C 
ATOM     73  F12 UNL A   1      51.288  25.820  17.214  1.00  0.00    +0.000 F 
ATOM     74  C50 UNL A   1      50.746  23.850  18.398  1.00  0.00    +0.000 C 
ATOM     75  F13 UNL A   1      49.887  24.531  19.168  1.00  0.00    +0.000 F 
ATOM     76  C51 UNL A   1      50.938  22.491  18.602  1.00  0.00    +0.000 C 
ATOM     77  F14 UNL A   1      50.250  21.855  19.559  1.00  0.00    +0.000 F 
ATOM     78  C52 UNL A   1      51.845  21.787  17.814  1.00  0.00    +0.000 C 
ATOM     79  F15 UNL A   1      52.016  20.476  18.038  1.00  0.00    +0.000 F 
ENDBRANCH   68   69
TORSDOF 19
ENDMDL
MODEL 5
REMARK VINA RESULT:     -11.1      0.756      7.401
ROOT
ATOM     32  C23 UNL A   1      53.482  19.725  11.660  1.00  0.00    +0.000 C 
ATOM     33  C24 UNL A   1      53.203  20.392  12.977  1.00  0.00    +0.000 C 
ATOM     34  N6  UNL A   1      54.004  20.583  13.994  1.00  0.00    +0.000 N 
ATOM     35  C25 UNL A   1      53.261  21.289  14.932  1.00  0.00    +0.000 C 
ATOM     36  C26 UNL A   1      53.622  21.678  16.177  1.00  0.00    +0.000 C 
ATOM     48  C33 UNL A   1      54.905  21.405  16.771  1.00  0.00    +0.000 C 
ATOM     49  C34 UNL A   1      55.345  21.700  18.049  1.00  0.00    +0.000 C 
ATOM     50  C35 UNL A   1      56.676  21.281  18.162  1.00  0.00    +0.000 C 
ATOM     51  C36 UNL A   1      57.051  20.687  16.967  1.00  0.00    +0.000 C 
ATOM     52  N7  UNL A   1      55.956  20.774  16.122  1.00  0.00    +0.000 N 
ATOM     53  C37 UNL A   1      58.312  20.084  16.621  1.00  0.00    +0.000 C 
ATOM     65  C44 UNL A   1      58.600  19.511  15.427  1.00  0.00    +0.000 C 
ATOM     66  N8  UNL A   1      57.789  19.370  14.309  1.00  0.00    +0.000 N 
ATOM     67  C45 UNL A   1      58.519  18.760  13.409  1.00  0.00    +0.000 C 
ATOM     68  C46 UNL A   1      58.145  18.328  12.019  1.00  0.00    +0.000 C 
ATOM     80  C53 UNL A   1      56.892  18.541  11.577  1.00  0.00    +0.000 C 
ATOM     81  C54 UNL A   1      56.381  18.169  10.261  1.00  0.00    +0.000 C 
ATOM     82  C55 UNL A   1      55.105  18.572  10.156  1.00  0.00    +0.000 C 
ATOM     83  C56 UNL A   1      54.698  19.202  11.411  1.00  0.00    +0.000 C 
ATOM     84  N9  UNL A   1      55.819  19.133  12.199  1.00  0.00    +0.000 N 
ATOM     85  C57 UNL A   1      59.892  18.469  13.846  1.00  0.00    +0.000 C 
ATOM     86  C58 UNL A   1      59.877  18.914  15.095  1.00  0.00    +0.000 C 
ATOM     87  C59 UNL A   1      51.962  21.535  14.343  1.00  0.00    +0.000 C 
ATOM     88  C60 UNL A   1      51.852  20.943  13.162  1.00  0.00    +0.000 C 
ATOM    117  H27 UNL A   1      54.788  22.149  18.792  1.00  0.00    +0.000 H 
ATOM    118  H28 UNL A   1      57.277  21.396  18.993  1.00  0.00    +0.000 H 
ATOM    119  H29 UNL A   1      55.928  20.437  15.197  1.00  0.00    +0.000 H 
ATOM    120  H30 UNL A   1      56.916  17.675   9.529  1.00  0.00    +0.000 H 
ATOM    121  H31 UNL A   1      54.508  18.457   9.322  1.00  0.00    +0.000 H 
ATOM    122  H32 UNL A   1      55.853  19.474  13.122  1.00  0.00    +0.000 H 
ATOM    123  H33 UNL A   1      60.665  18.032  13.319  1.00  0.00    +0.000 H 
ATOM    124  H34 UNL A   1      60.674  18.843  15.747  1.00  0.00    +0.000 H 
ATOM    125  H35 UNL A   1      51.218  22.098  14.784  1.00  0.00    +0.000 H 
ATOM    126  H36 UNL A   1      51.033  20.884  12.537  1.00  0.00    +0.000 H 
ENDROOT
BRANCH   32   31
ATOM    115  H25 UNL A   1      51.099  21.588   8.163  1.00  0.00    +0.000 H 
ATOM    116  H26 UNL A   1      52.887  21.611   9.805  1.00  0.00    +0.000 H 
ATOM     89  C61 UNL A   1      51.626  18.570  10.458  1.00  0.00    +0.000 C 
ATOM     90  C62 UNL A   1      50.651  18.527   9.465  1.00  0.00    +0.000 C 
ATOM    127  H37 UNL A   1      51.747  17.765  11.093  1.00  0.00    +0.000 H 
ATOM     28  C19 UNL A   1      50.420  19.652   8.667  1.00  0.00    +0.000 C 
ATOM     29  C20 UNL A   1      51.243  20.774   8.782  1.00  0.00    +0.000 C 
ATOM     30  C21 UNL A   1      52.263  20.793   9.735  1.00  0.00    +0.000 C 
ATOM     31  C22 UNL A   1      52.443  19.701  10.601  1.00  0.00    +0.000 C 
ATOM    128  H38 UNL A   1      50.100  17.666   9.319  1.00  0.00    +0.000 H 
BRANCH   28   26
ATOM     26  C18 UNL A   1      49.318  19.673   7.682  1.00  0.00    +0.000 C 
ATOM     27  O3  UNL A   1      48.348  20.402   7.871  1.00  0.00    +0.000 O 
BRANCH   26   25
ATOM     25  N5  UNL A   1      49.373  18.867   6.575  1.00  0.00    +0.000 N 
ATOM    114  H24 UNL A   1      50.268  18.753   6.179  1.00  0.00    +0.000 H 
BRANCH   25   24
ATOM    113  H23 UNL A   1      47.481  18.075   6.589  1.00  0.00    +0.000 H 
ATOM    112  H22 UNL A   1      48.657  17.192   5.607  1.00  0.00    +0.000 H 
ATOM     24  C17 UNL A   1      48.299  18.154   5.903  1.00  0.00    +0.000 C 
BRANCH   24   23
ATOM    111  H21 UNL A   1      48.130  18.326   3.822  1.00  0.00    +0.000 H 
ATOM    110  H20 UNL A   1      48.195  19.888   4.689  1.00  0.00    +0.000 H 
ATOM     23  C16 UNL A   1      47.799  18.894   4.666  1.00  0.00    +0.000 C 
BRANCH   23   22
ATOM    108  H18 UNL A   1      45.972  18.412   3.701  1.00  0.00    +0.000 H 
ATOM    109  H19 UNL A   1      45.882  18.635   5.474  1.00  0.00    +0.000 H 
ATOM     22  C15 UNL A   1      46.275  18.992   4.546  1.00  0.00    +0.000 C 
BRANCH   22   21
ATOM    106  H16 UNL A   1      45.071  20.618   5.191  1.00  0.00    +0.000 H 
ATOM    107  H17 UNL A   1      46.575  21.058   4.327  1.00  0.00    +0.000 H 
ATOM     21  C14 UNL A   1      45.723  20.411   4.369  1.00  0.00    +0.000 C 
BRANCH   21   20
ATOM    105  H15 UNL A   1      45.439  21.444   2.554  1.00  0.00    +0.000 H 
ATOM     20  C13 UNL A   1      44.942  20.650   3.072  1.00  0.00    +0.000 C 
ATOM    104  H14 UNL A   1      43.932  20.893   3.328  1.00  0.00    +0.000 H 
BRANCH   20   19
ATOM     19  C12 UNL A   1      44.922  19.452   2.127  1.00  0.00    +0.000 C 
ATOM    102  H12 UNL A   1      45.668  19.587   1.372  1.00  0.00    +0.000 H 
ATOM    103  H13 UNL A   1      45.122  18.566   2.693  1.00  0.00    +0.000 H 
BRANCH   19   18
ATOM     18  N4  UNL A   1      43.623  19.316   1.495  1.00  0.00    +0.000 N 
ATOM    101  H11 UNL A   1      43.652  19.224   0.515  1.00  0.00    +0.000 H 
BRANCH   18   16
ATOM     17  O2  UNL A   1      42.176  18.507   2.964  1.00  0.00    +0.000 O 
ATOM     16  C11 UNL A   1      42.371  19.292   2.030  1.00  0.00    +0.000 C 
BRANCH   16    2
ATOM      2  C2  UNL A   1      41.240  20.190   1.518  1.00  0.00    +0.000 C 
ATOM     94  H4  UNL A   1      40.917  20.866   2.282  1.00  0.00    +0.000 H 
BRANCH    2    1
ATOM      1  C1  UNL A   1      41.699  21.157   0.432  1.00  0.00    +0.000 C 
ATOM     91  H1  UNL A   1      41.048  21.079  -0.413  1.00  0.00    +0.000 H 
ATOM     92  H2  UNL A   1      42.699  20.913   0.136  1.00  0.00    +0.000 H 
ATOM     93  H3  UNL A   1      41.674  22.157   0.811  1.00  0.00    +0.000 H 
ENDBRANCH    2    1
BRANCH    2    3
ATOM      3  S1  UNL A   1      39.805  19.130   1.112  1.00  0.00    +0.000 S 
BRANCH    3    4
ATOM     97  H7  UNL A   1      34.571  24.027  -1.665  1.00  0.00    +0.000 H 
ATOM     98  H8  UNL A   1      34.668  23.096   0.579  1.00  0.00    +0.000 H 
ATOM      4  C3  UNL A   1      38.557  20.314   0.816  1.00  0.00    +0.000 C 
ATOM      5  N1  UNL A   1      38.532  20.850  -0.360  1.00  0.00    +0.000 N 
ATOM      6  C4  UNL A   1      37.477  21.720  -0.667  1.00  0.00    +0.000 C 
ATOM      7  C5  UNL A   1      37.412  22.267  -1.951  1.00  0.00    +0.000 C 
ATOM      8  C6  UNL A   1      36.353  23.105  -2.316  1.00  0.00    +0.000 C 
ATOM      9  C7  UNL A   1      35.351  23.408  -1.396  1.00  0.00    +0.000 C 
ATOM     10  C8  UNL A   1      35.405  22.873  -0.109  1.00  0.00    +0.000 C 
ATOM     11  C9  UNL A   1      36.467  22.031   0.244  1.00  0.00    +0.000 C 
ATOM     12  C10 UNL A   1      36.533  21.421   1.583  1.00  0.00    +0.000 C 
ATOM     13  O1  UNL A   1      35.663  21.647   2.424  1.00  0.00    +0.000 O 
ATOM     14  N2  UNL A   1      37.614  20.567   1.806  1.00  0.00    +0.000 N 
ATOM     95  H5  UNL A   1      38.152  22.050  -2.638  1.00  0.00    +0.000 H 
ATOM     96  H6  UNL A   1      36.314  23.500  -3.268  1.00  0.00    +0.000 H 
BRANCH   14   15
ATOM     99  H9  UNL A   1      38.181  19.107   3.215  1.00  0.00    +0.000 H 
ATOM    100  H10 UNL A   1      37.251  20.376   3.872  1.00  0.00    +0.000 H 
ATOM     15  N3  UNL A   1      37.690  19.953   3.099  1.00  0.00    +0.000 N 
ENDBRANCH   14   15
ENDBRANCH    3    4
ENDBRANCH    2    3
ENDBRANCH   16    2
ENDBRANCH   18   16
ENDBRANCH   19   18
ENDBRANCH   20   19
ENDBRANCH   21   20
ENDBRANCH   22   21
ENDBRANCH   23   22
ENDBRANCH   24   23
ENDBRANCH   25   24
ENDBRANCH   26   25
ENDBRANCH   28   26
ENDBRANCH   32   31
BRANCH   36   37
ATOM     37  C27 UNL A   1      52.612  22.442  16.984  1.00  0.00    +0.000 C 
ATOM     38  C28 UNL A   1      51.809  21.809  17.945  1.00  0.00    +0.000 C 
ATOM     39  F1  UNL A   1      51.906  20.485  18.140  1.00  0.00    +0.000 F 
ATOM     40  C29 UNL A   1      50.871  22.528  18.681  1.00  0.00    +0.000 C 
ATOM     41  F2  UNL A   1      50.079  21.893  19.555  1.00  0.00    +0.000 F 
ATOM     42  C30 UNL A   1      50.743  23.896  18.497  1.00  0.00    +0.000 C 
ATOM     43  F3  UNL A   1      49.841  24.588  19.207  1.00  0.00    +0.000 F 
ATOM     44  C31 UNL A   1      51.543  24.547  17.570  1.00  0.00    +0.000 C 
ATOM     45  F4  UNL A   1      51.429  25.871  17.400  1.00  0.00    +0.000 F 
ATOM     46  C32 UNL A   1      52.462  23.825  16.811  1.00  0.00    +0.000 C 
ATOM     47  F5  UNL A   1      53.209  24.480  15.910  1.00  0.00    +0.000 F 
ENDBRANCH   36   37
BRANCH   53   54
ATOM     54  C38 UNL A   1      59.387  20.067  17.668  1.00  0.00    +0.000 C 
ATOM     55  C39 UNL A   1      60.140  21.211  17.966  1.00  0.00    +0.000 C 
ATOM     56  F6  UNL A   1      59.949  22.345  17.274  1.00  0.00    +0.000 F 
ATOM     57  C40 UNL A   1      61.120  21.184  18.954  1.00  0.00    +0.000 C 
ATOM     58  F7  UNL A   1      61.858  22.276  19.194  1.00  0.00    +0.000 F 
ATOM     59  C41 UNL A   1      61.344  20.024  19.682  1.00  0.00    +0.000 C 
ATOM     60  F8  UNL A   1      62.283  20.002  20.639  1.00  0.00    +0.000 F 
ATOM     61  C42 UNL A   1      60.599  18.886  19.415  1.00  0.00    +0.000 C 
ATOM     62  F9  UNL A   1      60.805  17.768  20.124  1.00  0.00    +0.000 F 
ATOM     63  C43 UNL A   1      59.637  18.903  18.409  1.00  0.00    +0.000 C 
ATOM     64  F10 UNL A   1      58.939  17.783  18.165  1.00  0.00    +0.000 F 
ENDBRANCH   53   54
BRANCH   68   69
ATOM     69  C47 UNL A   1      59.127  17.641  11.141  1.00  0.00    +0.000 C 
ATOM     70  C48 UNL A   1      59.916  18.370  10.241  1.00  0.00    +0.000 C 
ATOM     71  F11 UNL A   1      59.765  19.699  10.144  1.00  0.00    +0.000 F 
ATOM     72  C49 UNL A   1      60.838  17.733   9.414  1.00  0.00    +0.000 C 
ATOM     73  F12 UNL A   1      61.554  18.450   8.535  1.00  0.00    +0.000 F 
ATOM     74  C50 UNL A   1      61.008  16.359   9.489  1.00  0.00    +0.000 C 
ATOM     75  F13 UNL A   1      61.899  15.747   8.697  1.00  0.00    +0.000 F 
ATOM     76  C51 UNL A   1      60.246  15.618  10.382  1.00  0.00    +0.000 C 
ATOM     77  F14 UNL A   1      60.416  14.292  10.465  1.00  0.00    +0.000 F 
ATOM     78  C52 UNL A   1      59.307  16.251  11.191  1.00  0.00    +0.000 C 
ATOM     79  F15 UNL A   1      58.578  15.510  12.039  1.00  0.00    +0.000 F 
ENDBRANCH   68   69
TORSDOF 19
ENDMDL
MODEL 6
REMARK VINA RESULT:     -11.1     40.315     47.179
ROOT
ATOM     32  C23 UNL A   1      25.920  35.378  45.526  1.00  0.00    +0.000 C 
ATOM     33  C24 UNL A   1      25.706  36.525  46.472  1.00  0.00    +0.000 C 
ATOM     34  N6  UNL A   1      26.516  37.506  46.781  1.00  0.00    +0.000 N 
ATOM     35  C25 UNL A   1      25.810  38.316  47.661  1.00  0.00    +0.000 C 
ATOM     36  C26 UNL A   1      26.232  39.427  48.310  1.00  0.00    +0.000 C 
ATOM     48  C33 UNL A   1      27.555  39.981  48.193  1.00  0.00    +0.000 C 
ATOM     49  C34 UNL A   1      28.100  41.064  48.860  1.00  0.00    +0.000 C 
ATOM     50  C35 UNL A   1      29.405  41.255  48.392  1.00  0.00    +0.000 C 
ATOM     51  C36 UNL A   1      29.688  40.262  47.466  1.00  0.00    +0.000 C 
ATOM     52  N7  UNL A   1      28.543  39.491  47.351  1.00  0.00    +0.000 N 
ATOM     53  C37 UNL A   1      30.911  40.035  46.740  1.00  0.00    +0.000 C 
ATOM     65  C44 UNL A   1      31.115  39.030  45.853  1.00  0.00    +0.000 C 
ATOM     66  N8  UNL A   1      30.241  38.028  45.455  1.00  0.00    +0.000 N 
ATOM     67  C45 UNL A   1      30.894  37.308  44.578  1.00  0.00    +0.000 C 
ATOM     68  C46 UNL A   1      30.445  36.079  43.836  1.00  0.00    +0.000 C 
ATOM     80  C53 UNL A   1      29.221  35.575  44.077  1.00  0.00    +0.000 C 
ATOM     81  C54 UNL A   1      28.653  34.388  43.445  1.00  0.00    +0.000 C 
ATOM     82  C55 UNL A   1      27.401  34.208  43.894  1.00  0.00    +0.000 C 
ATOM     83  C56 UNL A   1      27.090  35.250  44.872  1.00  0.00    +0.000 C 
ATOM     84  N9  UNL A   1      28.230  36.012  44.922  1.00  0.00    +0.000 N 
ATOM     85  C57 UNL A   1      32.254  37.790  44.298  1.00  0.00    +0.000 C 
ATOM     86  C58 UNL A   1      32.350  38.819  45.128  1.00  0.00    +0.000 C 
ATOM     87  C59 UNL A   1      24.490  37.739  47.799  1.00  0.00    +0.000 C 
ATOM     88  C60 UNL A   1      24.396  36.595  47.137  1.00  0.00    +0.000 C 
ATOM    117  H27 UNL A   1      27.626  41.633  49.578  1.00  0.00    +0.000 H 
ATOM    118  H28 UNL A   1      30.048  42.006  48.686  1.00  0.00    +0.000 H 
ATOM    119  H29 UNL A   1      28.445  38.710  46.760  1.00  0.00    +0.000 H 
ATOM    120  H30 UNL A   1      29.137  33.784  42.762  1.00  0.00    +0.000 H 
ATOM    121  H31 UNL A   1      26.761  33.455  43.597  1.00  0.00    +0.000 H 
ATOM    122  H32 UNL A   1      28.330  36.797  45.508  1.00  0.00    +0.000 H 
ATOM    123  H33 UNL A   1      32.951  37.423  43.630  1.00  0.00    +0.000 H 
ATOM    124  H34 UNL A   1      33.199  39.396  45.243  1.00  0.00    +0.000 H 
ATOM    125  H35 UNL A   1      23.721  38.164  48.341  1.00  0.00    +0.000 H 
ATOM    126  H36 UNL A   1      23.610  35.927  47.100  1.00  0.00    +0.000 H 
ENDROOT
BRANCH   32   31
ATOM    115  H25 UNL A   1      22.041  34.037  43.396  1.00  0.00    +0.000 H 
ATOM    116  H26 UNL A   1      23.895  35.568  43.732  1.00  0.00    +0.000 H 
ATOM     89  C61 UNL A   1      24.758  33.215  45.966  1.00  0.00    +0.000 C 
ATOM     90  C62 UNL A   1      23.736  32.302  45.717  1.00  0.00    +0.000 C 
ATOM    127  H37 UNL A   1      25.474  33.002  46.678  1.00  0.00    +0.000 H 
ATOM     28  C19 UNL A   1      22.713  32.630  44.822  1.00  0.00    +0.000 C 
ATOM     29  C20 UNL A   1      22.775  33.816  44.088  1.00  0.00    +0.000 C 
ATOM     30  C21 UNL A   1      23.834  34.703  44.291  1.00  0.00    +0.000 C 
ATOM     31  C22 UNL A   1      24.819  34.422  45.253  1.00  0.00    +0.000 C 
ATOM    128  H38 UNL A   1      23.735  31.386  46.192  1.00  0.00    +0.000 H 
BRANCH   28   26
ATOM     26  C18 UNL A   1      21.558  31.728  44.624  1.00  0.00    +0.000 C 
ATOM     27  O3  UNL A   1      21.492  30.676  45.253  1.00  0.00    +0.000 O 
BRANCH   26   25
ATOM     25  N5  UNL A   1      20.577  32.059  43.725  1.00  0.00    +0.000 N 
ATOM    114  H24 UNL A   1      20.891  32.484  42.893  1.00  0.00    +0.000 H 
BRANCH   25   24
ATOM    113  H23 UNL A   1      18.872  31.941  44.858  1.00  0.00    +0.000 H 
ATOM    112  H22 UNL A   1      18.889  30.914  43.419  1.00  0.00    +0.000 H 
ATOM     24  C17 UNL A   1      19.139  31.871  43.825  1.00  0.00    +0.000 C 
BRANCH   24   23
ATOM    111  H21 UNL A   1      19.091  33.578  42.612  1.00  0.00    +0.000 H 
ATOM    110  H20 UNL A   1      17.732  33.454  43.768  1.00  0.00    +0.000 H 
ATOM     23  C16 UNL A   1      18.361  32.943  43.068  1.00  0.00    +0.000 C 
BRANCH   23   22
ATOM    108  H18 UNL A   1      17.629  33.045  41.079  1.00  0.00    +0.000 H 
ATOM    109  H19 UNL A   1      17.774  31.402  41.774  1.00  0.00    +0.000 H 
ATOM     22  C15 UNL A   1      17.478  32.417  41.932  1.00  0.00    +0.000 C 
BRANCH   22   21
ATOM    106  H16 UNL A   1      15.664  33.373  42.483  1.00  0.00    +0.000 H 
ATOM    107  H17 UNL A   1      15.506  31.993  41.355  1.00  0.00    +0.000 H 
ATOM     21  C14 UNL A   1      15.977  32.381  42.234  1.00  0.00    +0.000 C 
BRANCH   21   20
ATOM    105  H15 UNL A   1      14.624  31.811  43.747  1.00  0.00    +0.000 H 
ATOM     20  C13 UNL A   1      15.564  31.452  43.382  1.00  0.00    +0.000 C 
ATOM    104  H14 UNL A   1      16.333  31.476  44.126  1.00  0.00    +0.000 H 
BRANCH   20   19
ATOM     19  C12 UNL A   1      15.349  30.001  42.963  1.00  0.00    +0.000 C 
ATOM    102  H12 UNL A   1      14.298  29.804  42.905  1.00  0.00    +0.000 H 
ATOM    103  H13 UNL A   1      15.807  29.848  42.007  1.00  0.00    +0.000 H 
BRANCH   19   18
ATOM     18  N4  UNL A   1      15.953  29.092  43.919  1.00  0.00    +0.000 N 
ATOM    101  H11 UNL A   1      15.661  29.224  44.849  1.00  0.00    +0.000 H 
BRANCH   18   16
ATOM     17  O2  UNL A   1      18.045  28.407  43.668  1.00  0.00    +0.000 O 
ATOM     16  C11 UNL A   1      16.854  28.086  43.743  1.00  0.00    +0.000 C 
BRANCH   16    2
ATOM      2  C2  UNL A   1      16.435  26.615  43.646  1.00  0.00    +0.000 C 
ATOM     94  H4  UNL A   1      16.859  26.157  42.777  1.00  0.00    +0.000 H 
BRANCH    2    1
ATOM      1  C1  UNL A   1      17.027  25.758  44.760  1.00  0.00    +0.000 C 
ATOM     91  H1  UNL A   1      16.972  24.725  44.482  1.00  0.00    +0.000 H 
ATOM     92  H2  UNL A   1      16.474  25.914  45.663  1.00  0.00    +0.000 H 
ATOM     93  H3  UNL A   1      18.049  26.031  44.915  1.00  0.00    +0.000 H 
ENDBRANCH    2    1
BRANCH    2    3
ATOM      3  S1  UNL A   1      14.619  26.548  43.444  1.00  0.00    +0.000 S 
BRANCH    3    4
ATOM     97  H7  UNL A   1      12.979  20.382  39.156  1.00  0.00    +0.000 H 
ATOM     98  H8  UNL A   1      13.708  22.565  38.373  1.00  0.00    +0.000 H 
ATOM      4  C3  UNL A   1      14.438  25.308  42.229  1.00  0.00    +0.000 C 
ATOM      5  N1  UNL A   1      14.100  24.131  42.645  1.00  0.00    +0.000 N 
ATOM      6  C4  UNL A   1      13.837  23.142  41.688  1.00  0.00    +0.000 C 
ATOM      7  C5  UNL A   1      13.423  21.881  42.123  1.00  0.00    +0.000 C 
ATOM      8  C6  UNL A   1      13.108  20.877  41.203  1.00  0.00    +0.000 C 
ATOM      9  C7  UNL A   1      13.210  21.125  39.835  1.00  0.00    +0.000 C 
ATOM     10  C8  UNL A   1      13.627  22.377  39.384  1.00  0.00    +0.000 C 
ATOM     11  C9  UNL A   1      13.935  23.377  40.315  1.00  0.00    +0.000 C 
ATOM     12  C10 UNL A   1      14.343  24.721  39.872  1.00  0.00    +0.000 C 
ATOM     13  O1  UNL A   1      14.433  24.991  38.674  1.00  0.00    +0.000 O 
ATOM     14  N2  UNL A   1      14.584  25.647  40.888  1.00  0.00    +0.000 N 
ATOM     95  H5  UNL A   1      13.347  21.689  43.135  1.00  0.00    +0.000 H 
ATOM     96  H6  UNL A   1      12.799  19.951  41.537  1.00  0.00    +0.000 H 
BRANCH   14   15
ATOM     99  H9  UNL A   1      14.366  27.726  40.638  1.00  0.00    +0.000 H 
ATOM    100  H10 UNL A   1      15.836  27.108  40.033  1.00  0.00    +0.000 H 
ATOM     15  N3  UNL A   1      14.969  26.964  40.477  1.00  0.00    +0.000 N 
ENDBRANCH   14   15
ENDBRANCH    3    4
ENDBRANCH    2    3
ENDBRANCH   16    2
ENDBRANCH   18   16
ENDBRANCH   19   18
ENDBRANCH   20   19
ENDBRANCH   21   20
ENDBRANCH   22   21
ENDBRANCH   23   22
ENDBRANCH   24   23
ENDBRANCH   25   24
ENDBRANCH   26   25
ENDBRANCH   28   26
ENDBRANCH   32   31
BRANCH   36   37
ATOM     37  C27 UNL A   1      25.247  40.118  49.209  1.00  0.00    +0.000 C 
ATOM     38  C28 UNL A   1      25.127  39.780  50.565  1.00  0.00    +0.000 C 
ATOM     39  F1  UNL A   1      25.876  38.795  51.084  1.00  0.00    +0.000 F 
ATOM     40  C29 UNL A   1      24.205  40.424  51.386  1.00  0.00    +0.000 C 
ATOM     41  F2  UNL A   1      24.071  40.048  52.665  1.00  0.00    +0.000 F 
ATOM     42  C30 UNL A   1      23.412  41.441  50.876  1.00  0.00    +0.000 C 
ATOM     43  F3  UNL A   1      22.527  42.063  51.667  1.00  0.00    +0.000 F 
ATOM     44  C31 UNL A   1      23.531  41.810  49.544  1.00  0.00    +0.000 C 
ATOM     45  F4  UNL A   1      22.774  42.800  49.054  1.00  0.00    +0.000 F 
ATOM     46  C32 UNL A   1      24.432  41.147  48.714  1.00  0.00    +0.000 C 
ATOM     47  F5  UNL A   1      24.511  41.513  47.426  1.00  0.00    +0.000 F 
ENDBRANCH   36   37
BRANCH   53   54
ATOM     54  C38 UNL A   1      32.060  40.965  46.999  1.00  0.00    +0.000 C 
ATOM     55  C39 UNL A   1      33.164  40.573  47.768  1.00  0.00    +0.000 C 
ATOM     56  F6  UNL A   1      33.191  39.359  48.340  1.00  0.00    +0.000 F 
ATOM     57  C40 UNL A   1      34.231  41.441  47.982  1.00  0.00    +0.000 C 
ATOM     58  F7  UNL A   1      35.257  41.061  48.755  1.00  0.00    +0.000 F 
ATOM     59  C41 UNL A   1      34.227  42.703  47.407  1.00  0.00    +0.000 C 
ATOM     60  F8  UNL A   1      35.259  43.536  47.609  1.00  0.00    +0.000 F 
ATOM     61  C42 UNL A   1      33.153  43.106  46.629  1.00  0.00    +0.000 C 
ATOM     62  F9  UNL A   1      33.152  44.321  46.065  1.00  0.00    +0.000 F 
ATOM     63  C43 UNL A   1      32.073  42.250  46.436  1.00  0.00    +0.000 C 
ATOM     64  F10 UNL A   1      31.042  42.671  45.688  1.00  0.00    +0.000 F 
ENDBRANCH   53   54
BRANCH   68   69
ATOM     69  C47 UNL A   1      31.345  35.397  42.871  1.00  0.00    +0.000 C 
ATOM     70  C48 UNL A   1      32.171  34.343  43.283  1.00  0.00    +0.000 C 
ATOM     71  F11 UNL A   1      32.177  33.960  44.569  1.00  0.00    +0.000 F 
ATOM     72  C49 UNL A   1      33.018  33.699  42.384  1.00  0.00    +0.000 C 
ATOM     73  F12 UNL A   1      33.825  32.718  42.812  1.00  0.00    +0.000 F 
ATOM     74  C50 UNL A   1      33.037  34.081  41.051  1.00  0.00    +0.000 C 
ATOM     75  F13 UNL A   1      33.848  33.458  40.185  1.00  0.00    +0.000 F 
ATOM     76  C51 UNL A   1      32.219  35.114  40.618  1.00  0.00    +0.000 C 
ATOM     77  F14 UNL A   1      32.226  35.478  39.329  1.00  0.00    +0.000 F 
ATOM     78  C52 UNL A   1      31.390  35.774  41.521  1.00  0.00    +0.000 C 
ATOM     79  F15 UNL A   1      30.615  36.775  41.078  1.00  0.00    +0.000 F 
ENDBRANCH   68   69
TORSDOF 19
ENDMDL
MODEL 7
REMARK VINA RESULT:     -11.1     40.324     46.575
ROOT
ATOM     32  C23 UNL A   1      25.934  35.633  45.423  1.00  0.00    +0.000 C 
ATOM     33  C24 UNL A   1      27.264  35.585  44.727  1.00  0.00    +0.000 C 
ATOM     34  N6  UNL A   1      28.312  36.353  44.891  1.00  0.00    +0.000 N 
ATOM     35  C25 UNL A   1      29.286  35.848  44.039  1.00  0.00    +0.000 C 
ATOM     36  C26 UNL A   1      30.529  36.327  43.799  1.00  0.00    +0.000 C 
ATOM     48  C33 UNL A   1      31.076  37.507  44.417  1.00  0.00    +0.000 C 
ATOM     49  C34 UNL A   1      32.301  38.111  44.191  1.00  0.00    +0.000 C 
ATOM     50  C35 UNL A   1      32.413  39.209  45.052  1.00  0.00    +0.000 C 
ATOM     51  C36 UNL A   1      31.239  39.314  45.782  1.00  0.00    +0.000 C 
ATOM     52  N7  UNL A   1      30.430  38.261  45.385  1.00  0.00    +0.000 N 
ATOM     53  C37 UNL A   1      30.881  40.301  46.769  1.00  0.00    +0.000 C 
ATOM     65  C44 UNL A   1      29.703  40.342  47.438  1.00  0.00    +0.000 C 
ATOM     66  N8  UNL A   1      28.612  39.490  47.334  1.00  0.00    +0.000 N 
ATOM     67  C45 UNL A   1      27.724  39.937  48.187  1.00  0.00    +0.000 C 
ATOM     68  C46 UNL A   1      26.344  39.417  48.480  1.00  0.00    +0.000 C 
ATOM     80  C53 UNL A   1      25.876  38.362  47.786  1.00  0.00    +0.000 C 
ATOM     81  C54 UNL A   1      24.559  37.756  47.951  1.00  0.00    +0.000 C 
ATOM     82  C55 UNL A   1      24.455  36.703  47.125  1.00  0.00    +0.000 C 
ATOM     83  C56 UNL A   1      25.688  36.581  46.348  1.00  0.00    +0.000 C 
ATOM     84  N9  UNL A   1      26.472  37.612  46.802  1.00  0.00    +0.000 N 
ATOM     85  C57 UNL A   1      28.165  41.112  48.952  1.00  0.00    +0.000 C 
ATOM     86  C58 UNL A   1      29.362  41.339  48.430  1.00  0.00    +0.000 C 
ATOM     87  C59 UNL A   1      28.721  34.680  43.397  1.00  0.00    +0.000 C 
ATOM     88  C60 UNL A   1      27.451  34.514  43.738  1.00  0.00    +0.000 C 
ATOM    117  H27 UNL A   1      33.009  37.806  43.506  1.00  0.00    +0.000 H 
ATOM    118  H28 UNL A   1      33.229  39.834  45.130  1.00  0.00    +0.000 H 
ATOM    119  H29 UNL A   1      29.530  38.076  45.738  1.00  0.00    +0.000 H 
ATOM    120  H30 UNL A   1      23.826  38.084  48.599  1.00  0.00    +0.000 H 
ATOM    121  H31 UNL A   1      23.636  36.079  47.051  1.00  0.00    +0.000 H 
ATOM    122  H32 UNL A   1      27.375  37.797  46.456  1.00  0.00    +0.000 H 
ATOM    123  H33 UNL A   1      27.671  41.626  49.700  1.00  0.00    +0.000 H 
ATOM    124  H34 UNL A   1      29.973  42.127  48.698  1.00  0.00    +0.000 H 
ATOM    125  H35 UNL A   1      29.240  34.058  42.758  1.00  0.00    +0.000 H 
ATOM    126  H36 UNL A   1      26.772  33.816  43.397  1.00  0.00    +0.000 H 
ENDROOT
BRANCH   32   31
ATOM    115  H25 UNL A   1      22.209  33.977  43.241  1.00  0.00    +0.000 H 
ATOM    116  H26 UNL A   1      23.941  35.642  43.584  1.00  0.00    +0.000 H 
ATOM     89  C61 UNL A   1      24.919  33.401  45.883  1.00  0.00    +0.000 C 
ATOM     90  C62 UNL A   1      23.971  32.413  45.632  1.00  0.00    +0.000 C 
ATOM    127  H37 UNL A   1      25.633  33.254  46.615  1.00  0.00    +0.000 H 
ATOM     28  C19 UNL A   1      22.947  32.649  44.710  1.00  0.00    +0.000 C 
ATOM     29  C20 UNL A   1      22.941  33.822  43.952  1.00  0.00    +0.000 C 
ATOM     30  C21 UNL A   1      23.930  34.786  44.159  1.00  0.00    +0.000 C 
ATOM     31  C22 UNL A   1      24.910  34.596  45.147  1.00  0.00    +0.000 C 
ATOM    128  H38 UNL A   1      24.025  31.508  46.126  1.00  0.00    +0.000 H 
BRANCH   28   26
ATOM     26  C18 UNL A   1      21.864  31.663  44.506  1.00  0.00    +0.000 C 
ATOM     27  O3  UNL A   1      22.023  30.501  44.869  1.00  0.00    +0.000 O 
BRANCH   26   25
ATOM     25  N5  UNL A   1      20.697  32.044  43.895  1.00  0.00    +0.000 N 
ATOM    114  H24 UNL A   1      20.717  32.927  43.459  1.00  0.00    +0.000 H 
BRANCH   25   24
ATOM    113  H23 UNL A   1      19.054  31.204  44.790  1.00  0.00    +0.000 H 
ATOM    112  H22 UNL A   1      19.610  30.386  43.324  1.00  0.00    +0.000 H 
ATOM     24  C17 UNL A   1      19.436  31.329  43.799  1.00  0.00    +0.000 C 
BRANCH   24   23
ATOM    111  H21 UNL A   1      18.820  32.254  42.023  1.00  0.00    +0.000 H 
ATOM    110  H20 UNL A   1      18.177  33.008  43.511  1.00  0.00    +0.000 H 
ATOM     23  C16 UNL A   1      18.394  32.097  42.992  1.00  0.00    +0.000 C 
BRANCH   23   22
ATOM    108  H18 UNL A   1      16.324  31.823  43.364  1.00  0.00    +0.000 H 
ATOM    109  H19 UNL A   1      16.883  31.405  41.715  1.00  0.00    +0.000 H 
ATOM     22  C15 UNL A   1      17.075  31.352  42.766  1.00  0.00    +0.000 C 
BRANCH   22   21
ATOM    106  H16 UNL A   1      17.689  29.356  42.385  1.00  0.00    +0.000 H 
ATOM    107  H17 UNL A   1      17.499  29.797  44.109  1.00  0.00    +0.000 H 
ATOM     21  C14 UNL A   1      17.098  29.861  43.119  1.00  0.00    +0.000 C 
BRANCH   21   20
ATOM    105  H15 UNL A   1      15.594  28.674  42.239  1.00  0.00    +0.000 H 
ATOM     20  C13 UNL A   1      15.724  29.183  43.172  1.00  0.00    +0.000 C 
ATOM    104  H14 UNL A   1      14.983  29.936  43.338  1.00  0.00    +0.000 H 
BRANCH   20   19
ATOM     19  C12 UNL A   1      15.591  28.130  44.269  1.00  0.00    +0.000 C 
ATOM    102  H12 UNL A   1      16.547  27.682  44.444  1.00  0.00    +0.000 H 
ATOM    103  H13 UNL A   1      15.235  28.606  45.159  1.00  0.00    +0.000 H 
BRANCH   19   18
ATOM     18  N4  UNL A   1      14.645  27.100  43.883  1.00  0.00    +0.000 N 
ATOM    101  H11 UNL A   1      13.700  27.365  43.950  1.00  0.00    +0.000 H 
BRANCH   18   16
ATOM     17  O2  UNL A   1      15.937  25.308  43.706  1.00  0.00    +0.000 O 
ATOM     16  C11 UNL A   1      14.847  25.827  43.440  1.00  0.00    +0.000 C 
BRANCH   16    2
ATOM      2  C2  UNL A   1      13.786  25.052  42.651  1.00  0.00    +0.000 C 
ATOM     94  H4  UNL A   1      13.859  24.004  42.847  1.00  0.00    +0.000 H 
BRANCH    2    1
ATOM      1  C1  UNL A   1      12.366  25.351  43.121  1.00  0.00    +0.000 C 
ATOM     91  H1  UNL A   1      12.357  26.276  43.660  1.00  0.00    +0.000 H 
ATOM     92  H2  UNL A   1      12.028  24.562  43.760  1.00  0.00    +0.000 H 
ATOM     93  H3  UNL A   1      11.719  25.425  42.273  1.00  0.00    +0.000 H 
ENDBRANCH    2    1
BRANCH    2    3
ATOM      3  S1  UNL A   1      14.119  25.280  40.867  1.00  0.00    +0.000 S 
BRANCH    3    4
ATOM     97  H7  UNL A   1      12.516  17.933  39.269  1.00  0.00    +0.000 H 
ATOM     98  H8  UNL A   1      13.671  19.529  37.845  1.00  0.00    +0.000 H 
ATOM      4  C3  UNL A   1      14.009  23.643  40.270  1.00  0.00    +0.000 C 
ATOM      5  N1  UNL A   1      13.442  22.779  41.046  1.00  0.00    +0.000 N 
ATOM      6  C4  UNL A   1      13.237  21.483  40.552  1.00  0.00    +0.000 C 
ATOM      7  C5  UNL A   1      12.580  20.553  41.362  1.00  0.00    +0.000 C 
ATOM      8  C6  UNL A   1      12.315  19.262  40.896  1.00  0.00    +0.000 C 
ATOM      9  C7  UNL A   1      12.711  18.887  39.613  1.00  0.00    +0.000 C 
ATOM     10  C8  UNL A   1      13.372  19.802  38.794  1.00  0.00    +0.000 C 
ATOM     11  C9  UNL A   1      13.628  21.094  39.270  1.00  0.00    +0.000 C 
ATOM     12  C10 UNL A   1      14.291  22.095  38.417  1.00  0.00    +0.000 C 
ATOM     13  O1  UNL A   1      14.645  21.814  37.272  1.00  0.00    +0.000 O 
ATOM     14  N2  UNL A   1      14.455  23.360  38.984  1.00  0.00    +0.000 N 
ATOM     95  H5  UNL A   1      12.286  20.823  42.315  1.00  0.00    +0.000 H 
ATOM     96  H6  UNL A   1      11.825  18.586  41.502  1.00  0.00    +0.000 H 
BRANCH   14   15
ATOM     99  H9  UNL A   1      15.427  24.109  37.273  1.00  0.00    +0.000 H 
ATOM    100  H10 UNL A   1      15.180  25.275  38.492  1.00  0.00    +0.000 H 
ATOM     15  N3  UNL A   1      15.087  24.352  38.165  1.00  0.00    +0.000 N 
ENDBRANCH   14   15
ENDBRANCH    3    4
ENDBRANCH    2    3
ENDBRANCH   16    2
ENDBRANCH   18   16
ENDBRANCH   19   18
ENDBRANCH   20   19
ENDBRANCH   21   20
ENDBRANCH   22   21
ENDBRANCH   23   22
ENDBRANCH   24   23
ENDBRANCH   25   24
ENDBRANCH   26   25
ENDBRANCH   28   26
ENDBRANCH   32   31
BRANCH   36   37
ATOM     37  C27 UNL A   1      31.384  35.573  42.822  1.00  0.00    +0.000 C 
ATOM     38  C28 UNL A   1      32.158  34.472  43.219  1.00  0.00    +0.000 C 
ATOM     39  F1  UNL A   1      32.174  34.088  44.505  1.00  0.00    +0.000 F 
ATOM     40  C29 UNL A   1      32.952  33.786  42.305  1.00  0.00    +0.000 C 
ATOM     41  F2  UNL A   1      33.723  32.771  42.718  1.00  0.00    +0.000 F 
ATOM     42  C30 UNL A   1      32.961  34.164  40.971  1.00  0.00    +0.000 C 
ATOM     43  F3  UNL A   1      33.725  33.502  40.091  1.00  0.00    +0.000 F 
ATOM     44  C31 UNL A   1      32.186  35.234  40.550  1.00  0.00    +0.000 C 
ATOM     45  F4  UNL A   1      32.185  35.593  39.259  1.00  0.00    +0.000 F 
ATOM     46  C32 UNL A   1      31.413  35.940  41.468  1.00  0.00    +0.000 C 
ATOM     47  F5  UNL A   1      30.687  36.982  41.034  1.00  0.00    +0.000 F 
ENDBRANCH   36   37
BRANCH   53   54
ATOM     54  C38 UNL A   1      31.878  41.382  47.067  1.00  0.00    +0.000 C 
ATOM     55  C39 UNL A   1      33.021  41.134  47.840  1.00  0.00    +0.000 C 
ATOM     56  F6  UNL A   1      33.221  39.922  48.382  1.00  0.00    +0.000 F 
ATOM     57  C40 UNL A   1      33.946  42.143  48.091  1.00  0.00    +0.000 C 
ATOM     58  F7  UNL A   1      35.010  41.897  48.868  1.00  0.00    +0.000 F 
ATOM     59  C41 UNL A   1      33.763  43.407  47.549  1.00  0.00    +0.000 C 
ATOM     60  F8  UNL A   1      34.659  44.376  47.786  1.00  0.00    +0.000 F 
ATOM     61  C42 UNL A   1      32.648  43.669  46.768  1.00  0.00    +0.000 C 
ATOM     62  F9  UNL A   1      32.475  44.886  46.235  1.00  0.00    +0.000 F 
ATOM     63  C43 UNL A   1      31.707  42.670  46.538  1.00  0.00    +0.000 C 
ATOM     64  F10 UNL A   1      30.633  42.955  45.787  1.00  0.00    +0.000 F 
ENDBRANCH   53   54
BRANCH   68   69
ATOM     69  C47 UNL A   1      25.480  40.071  49.495  1.00  0.00    +0.000 C 
ATOM     70  C48 UNL A   1      25.487  39.636  50.828  1.00  0.00    +0.000 C 
ATOM     71  F11 UNL A   1      26.257  38.599  51.190  1.00  0.00    +0.000 F 
ATOM     72  C49 UNL A   1      24.679  40.243  51.786  1.00  0.00    +0.000 C 
ATOM     73  F12 UNL A   1      24.677  39.785  53.046  1.00  0.00    +0.000 F 
ATOM     74  C50 UNL A   1      23.867  41.312  51.437  1.00  0.00    +0.000 C 
ATOM     75  F13 UNL A   1      23.095  41.900  52.360  1.00  0.00    +0.000 F 
ATOM     76  C51 UNL A   1      23.854  41.767  50.126  1.00  0.00    +0.000 C 
ATOM     77  F14 UNL A   1      23.080  42.807  49.787  1.00  0.00    +0.000 F 
ATOM     78  C52 UNL A   1      24.643  41.145  49.162  1.00  0.00    +0.000 C 
ATOM     79  F15 UNL A   1      24.604  41.600  47.901  1.00  0.00    +0.000 F 
ENDBRANCH   68   69
TORSDOF 19
ENDMDL
MODEL 8
REMARK VINA RESULT:     -11.1     46.794     51.771
ROOT
ATOM     32  C23 UNL A   1      21.708  35.921  47.396  1.00  0.00    +0.000 C 
ATOM     33  C24 UNL A   1      22.783  36.971  47.400  1.00  0.00    +0.000 C 
ATOM     34  N6  UNL A   1      22.754  38.184  47.890  1.00  0.00    +0.000 N 
ATOM     35  C25 UNL A   1      24.021  38.710  47.671  1.00  0.00    +0.000 C 
ATOM     36  C26 UNL A   1      24.478  39.954  47.945  1.00  0.00    +0.000 C 
ATOM     48  C33 UNL A   1      23.683  40.998  48.537  1.00  0.00    +0.000 C 
ATOM     49  C34 UNL A   1      24.035  42.311  48.794  1.00  0.00    +0.000 C 
ATOM     50  C35 UNL A   1      22.949  42.942  49.414  1.00  0.00    +0.000 C 
ATOM     51  C36 UNL A   1      21.906  42.033  49.503  1.00  0.00    +0.000 C 
ATOM     52  N7  UNL A   1      22.372  40.844  48.965  1.00  0.00    +0.000 N 
ATOM     53  C37 UNL A   1      20.584  42.233  50.038  1.00  0.00    +0.000 C 
ATOM     65  C44 UNL A   1      19.611  41.291  50.081  1.00  0.00    +0.000 C 
ATOM     66  N8  UNL A   1      19.650  39.976  49.638  1.00  0.00    +0.000 N 
ATOM     67  C45 UNL A   1      18.472  39.470  49.906  1.00  0.00    +0.000 C 
ATOM     68  C46 UNL A   1      17.945  38.091  49.622  1.00  0.00    +0.000 C 
ATOM     80  C53 UNL A   1      18.729  37.205  48.980  1.00  0.00    +0.000 C 
ATOM     81  C54 UNL A   1      18.353  35.839  48.628  1.00  0.00    +0.000 C 
ATOM     82  C55 UNL A   1      19.395  35.237  48.035  1.00  0.00    +0.000 C 
ATOM     83  C56 UNL A   1      20.503  36.186  47.935  1.00  0.00    +0.000 C 
ATOM     84  N9  UNL A   1      20.015  37.330  48.515  1.00  0.00    +0.000 N 
ATOM     85  C57 UNL A   1      17.557  40.403  50.579  1.00  0.00    +0.000 C 
ATOM     86  C58 UNL A   1      18.288  41.508  50.627  1.00  0.00    +0.000 C 
ATOM     87  C59 UNL A   1      24.809  37.667  47.049  1.00  0.00    +0.000 C 
ATOM     88  C60 UNL A   1      24.072  36.595  46.798  1.00  0.00    +0.000 C 
ATOM    117  H27 UNL A   1      24.940  42.751  48.567  1.00  0.00    +0.000 H 
ATOM    118  H28 UNL A   1      22.928  43.918  49.748  1.00  0.00    +0.000 H 
ATOM    119  H29 UNL A   1      21.850  40.012  48.896  1.00  0.00    +0.000 H 
ATOM    120  H30 UNL A   1      17.433  35.407  48.807  1.00  0.00    +0.000 H 
ATOM    121  H31 UNL A   1      19.412  34.260  47.703  1.00  0.00    +0.000 H 
ATOM    122  H32 UNL A   1      20.536  38.162  48.591  1.00  0.00    +0.000 H 
ATOM    123  H33 UNL A   1      16.597  40.241  50.922  1.00  0.00    +0.000 H 
ATOM    124  H34 UNL A   1      17.955  42.409  51.007  1.00  0.00    +0.000 H 
ATOM    125  H35 UNL A   1      25.814  37.748  46.830  1.00  0.00    +0.000 H 
ATOM    126  H36 UNL A   1      24.333  35.725  46.309  1.00  0.00    +0.000 H 
ENDROOT
BRANCH   32   31
ATOM    115  H25 UNL A   1      22.004  32.788  44.009  1.00  0.00    +0.000 H 
ATOM    116  H26 UNL A   1      21.653  35.046  44.830  1.00  0.00    +0.000 H 
ATOM     89  C61 UNL A   1      22.369  33.541  47.745  1.00  0.00    +0.000 C 
ATOM     90  C62 UNL A   1      22.646  32.265  47.261  1.00  0.00    +0.000 C 
ATOM    127  H37 UNL A   1      22.443  33.734  48.756  1.00  0.00    +0.000 H 
ATOM     28  C19 UNL A   1      22.455  31.977  45.907  1.00  0.00    +0.000 C 
ATOM     29  C20 UNL A   1      22.104  32.994  45.016  1.00  0.00    +0.000 C 
ATOM     30  C21 UNL A   1      21.889  34.289  45.491  1.00  0.00    +0.000 C 
ATOM     31  C22 UNL A   1      21.991  34.566  46.864  1.00  0.00    +0.000 C 
ATOM    128  H38 UNL A   1      22.992  31.534  47.903  1.00  0.00    +0.000 H 
BRANCH   28   26
ATOM     26  C18 UNL A   1      22.633  30.604  45.388  1.00  0.00    +0.000 C 
ATOM     27  O3  UNL A   1      23.591  30.346  44.664  1.00  0.00    +0.000 O 
BRANCH   26   25
ATOM     25  N5  UNL A   1      21.720  29.630  45.700  1.00  0.00    +0.000 N 
ATOM    114  H24 UNL A   1      21.935  29.086  46.492  1.00  0.00    +0.000 H 
BRANCH   25   24
ATOM    113  H23 UNL A   1      19.799  28.915  45.765  1.00  0.00    +0.000 H 
ATOM    112  H22 UNL A   1      20.683  28.555  44.276  1.00  0.00    +0.000 H 
ATOM     24  C17 UNL A   1      20.477  29.288  45.027  1.00  0.00    +0.000 C 
BRANCH   24   23
ATOM    111  H21 UNL A   1      19.554  30.190  43.377  1.00  0.00    +0.000 H 
ATOM    110  H20 UNL A   1      20.530  31.304  44.378  1.00  0.00    +0.000 H 
ATOM     23  C16 UNL A   1      19.826  30.498  44.365  1.00  0.00    +0.000 C 
BRANCH   23   22
ATOM    108  H18 UNL A   1      18.181  30.202  45.672  1.00  0.00    +0.000 H 
ATOM    109  H19 UNL A   1      18.794  31.879  45.557  1.00  0.00    +0.000 H 
ATOM     22  C15 UNL A   1      18.536  30.983  45.034  1.00  0.00    +0.000 C 
BRANCH   22   21
ATOM    106  H16 UNL A   1      16.536  31.585  44.657  1.00  0.00    +0.000 H 
ATOM    107  H17 UNL A   1      17.762  32.196  43.506  1.00  0.00    +0.000 H 
ATOM     21  C14 UNL A   1      17.404  31.362  44.074  1.00  0.00    +0.000 C 
BRANCH   21   20
ATOM    105  H15 UNL A   1      17.941  29.914  42.639  1.00  0.00    +0.000 H 
ATOM     20  C13 UNL A   1      17.026  30.283  43.052  1.00  0.00    +0.000 C 
ATOM    104  H14 UNL A   1      16.388  30.726  42.316  1.00  0.00    +0.000 H 
BRANCH   20   19
ATOM     19  C12 UNL A   1      16.300  29.083  43.654  1.00  0.00    +0.000 C 
ATOM    102  H12 UNL A   1      16.702  28.879  44.625  1.00  0.00    +0.000 H 
ATOM    103  H13 UNL A   1      15.257  29.314  43.726  1.00  0.00    +0.000 H 
BRANCH   19   18
ATOM     18  N4  UNL A   1      16.460  27.910  42.816  1.00  0.00    +0.000 N 
ATOM    101  H11 UNL A   1      17.360  27.513  42.834  1.00  0.00    +0.000 H 
BRANCH   18   16
ATOM     17  O2  UNL A   1      15.068  27.922  41.092  1.00  0.00    +0.000 O 
ATOM     16  C11 UNL A   1      15.571  27.265  42.009  1.00  0.00    +0.000 C 
BRANCH   16    2
ATOM      2  C2  UNL A   1      15.200  25.791  42.208  1.00  0.00    +0.000 C 
ATOM     94  H4  UNL A   1      15.839  25.158  41.630  1.00  0.00    +0.000 H 
BRANCH    2    1
ATOM      1  C1  UNL A   1      15.482  25.297  43.622  1.00  0.00    +0.000 C 
ATOM     91  H1  UNL A   1      14.593  24.863  44.032  1.00  0.00    +0.000 H 
ATOM     92  H2  UNL A   1      15.792  26.119  44.233  1.00  0.00    +0.000 H 
ATOM     93  H3  UNL A   1      16.258  24.561  43.594  1.00  0.00    +0.000 H 
ENDBRANCH    2    1
BRANCH    2    3
ATOM      3  S1  UNL A   1      13.500  25.539  41.581  1.00  0.00    +0.000 S 
BRANCH    3    4
ATOM     97  H7  UNL A   1      13.094  18.376  38.822  1.00  0.00    +0.000 H 
ATOM     98  H8  UNL A   1      13.964  20.341  37.686  1.00  0.00    +0.000 H 
ATOM      4  C3  UNL A   1      13.652  24.021  40.733  1.00  0.00    +0.000 C 
ATOM      5  N1  UNL A   1      13.237  22.965  41.353  1.00  0.00    +0.000 N 
ATOM      6  C4  UNL A   1      13.241  21.748  40.659  1.00  0.00    +0.000 C 
ATOM      7  C5  UNL A   1      12.749  20.609  41.301  1.00  0.00    +0.000 C 
ATOM      8  C6  UNL A   1      12.693  19.381  40.633  1.00  0.00    +0.000 C 
ATOM      9  C7  UNL A   1      13.134  19.282  39.314  1.00  0.00    +0.000 C 
ATOM     10  C8  UNL A   1      13.632  20.409  38.661  1.00  0.00    +0.000 C 
ATOM     11  C9  UNL A   1      13.680  21.634  39.338  1.00  0.00    +0.000 C 
ATOM     12  C10 UNL A   1      14.166  22.850  38.665  1.00  0.00    +0.000 C 
ATOM     13  O1  UNL A   1      14.551  22.814  37.497  1.00  0.00    +0.000 O 
ATOM     14  N2  UNL A   1      14.127  24.020  39.426  1.00  0.00    +0.000 N 
ATOM     95  H5  UNL A   1      12.423  20.674  42.279  1.00  0.00    +0.000 H 
ATOM     96  H6  UNL A   1      12.324  18.548  41.117  1.00  0.00    +0.000 H 
BRANCH   14   15
ATOM     99  H9  UNL A   1      14.052  26.044  38.848  1.00  0.00    +0.000 H 
ATOM    100  H10 UNL A   1      15.428  25.214  38.278  1.00  0.00    +0.000 H 
ATOM     15  N3  UNL A   1      14.584  25.217  38.784  1.00  0.00    +0.000 N 
ENDBRANCH   14   15
ENDBRANCH    3    4
ENDBRANCH    2    3
ENDBRANCH   16    2
ENDBRANCH   18   16
ENDBRANCH   19   18
ENDBRANCH   20   19
ENDBRANCH   21   20
ENDBRANCH   22   21
ENDBRANCH   23   22
ENDBRANCH   24   23
ENDBRANCH   25   24
ENDBRANCH   26   25
ENDBRANCH   28   26
ENDBRANCH   32   31
BRANCH   36   37
ATOM     37  C27 UNL A   1      25.909  40.256  47.605  1.00  0.00    +0.000 C 
ATOM     38  C28 UNL A   1      26.292  40.643  46.312  1.00  0.00    +0.000 C 
ATOM     39  F1  UNL A   1      25.378  40.720  45.332  1.00  0.00    +0.000 F 
ATOM     40  C29 UNL A   1      27.623  40.913  46.009  1.00  0.00    +0.000 C 
ATOM     41  F2  UNL A   1      27.972  41.230  44.754  1.00  0.00    +0.000 F 
ATOM     42  C30 UNL A   1      28.591  40.836  46.998  1.00  0.00    +0.000 C 
ATOM     43  F3  UNL A   1      29.873  41.098  46.706  1.00  0.00    +0.000 F 
ATOM     44  C31 UNL A   1      28.234  40.479  48.290  1.00  0.00    +0.000 C 
ATOM     45  F4  UNL A   1      29.166  40.416  49.250  1.00  0.00    +0.000 F 
ATOM     46  C32 UNL A   1      26.906  40.180  48.589  1.00  0.00    +0.000 C 
ATOM     47  F5  UNL A   1      26.594  39.821  49.843  1.00  0.00    +0.000 F 
ENDBRANCH   36   37
BRANCH   53   54
ATOM     54  C38 UNL A   1      20.246  43.594  50.570  1.00  0.00    +0.000 C 
ATOM     55  C39 UNL A   1      20.479  43.938  51.909  1.00  0.00    +0.000 C 
ATOM     56  F6  UNL A   1      20.966  43.026  52.766  1.00  0.00    +0.000 F 
ATOM     57  C40 UNL A   1      20.178  45.212  52.383  1.00  0.00    +0.000 C 
ATOM     58  F7  UNL A   1      20.369  45.507  53.676  1.00  0.00    +0.000 F 
ATOM     59  C41 UNL A   1      19.669  46.173  51.521  1.00  0.00    +0.000 C 
ATOM     60  F8  UNL A   1      19.387  47.402  51.978  1.00  0.00    +0.000 F 
ATOM     61  C42 UNL A   1      19.447  45.860  50.189  1.00  0.00    +0.000 C 
ATOM     62  F9  UNL A   1      18.965  46.789  49.353  1.00  0.00    +0.000 F 
ATOM     63  C43 UNL A   1      19.721  44.578  49.720  1.00  0.00    +0.000 C 
ATOM     64  F10 UNL A   1      19.485  44.300  48.428  1.00  0.00    +0.000 F 
ENDBRANCH   53   54
BRANCH   68   69
ATOM     69  C47 UNL A   1      16.564  37.706  50.010  1.00  0.00    +0.000 C 
ATOM     70  C48 UNL A   1      16.218  37.537  51.357  1.00  0.00    +0.000 C 
ATOM     71  F11 UNL A   1      17.148  37.694  52.311  1.00  0.00    +0.000 F 
ATOM     72  C49 UNL A   1      14.926  37.175  51.728  1.00  0.00    +0.000 C 
ATOM     73  F12 UNL A   1      14.630  36.984  53.022  1.00  0.00    +0.000 F 
ATOM     74  C50 UNL A   1      13.947  36.998  50.761  1.00  0.00    +0.000 C 
ATOM     75  F13 UNL A   1      12.702  36.656  51.119  1.00  0.00    +0.000 F 
ATOM     76  C51 UNL A   1      14.264  37.172  49.421  1.00  0.00    +0.000 C 
ATOM     77  F14 UNL A   1      13.319  37.015  48.485  1.00  0.00    +0.000 F 
ATOM     78  C52 UNL A   1      15.562  37.510  49.048  1.00  0.00    +0.000 C 
ATOM     79  F15 UNL A   1      15.842  37.664  47.746  1.00  0.00    +0.000 F 
ENDBRANCH   68   69
TORSDOF 19
ENDMDL
MODEL 9
REMARK VINA RESULT:     -11.1     44.548     51.820
ROOT
ATOM     32  C23 UNL A   1      25.590  39.344  46.832  1.00  0.00    +0.000 C 
ATOM     33  C24 UNL A   1      25.000  37.978  46.630  1.00  0.00    +0.000 C 
ATOM     34  N6  UNL A   1      23.789  37.552  46.888  1.00  0.00    +0.000 N 
ATOM     35  C25 UNL A   1      23.757  36.229  46.469  1.00  0.00    +0.000 C 
ATOM     36  C26 UNL A   1      22.746  35.334  46.572  1.00  0.00    +0.000 C 
ATOM     48  C33 UNL A   1      21.468  35.621  47.170  1.00  0.00    +0.000 C 
ATOM     49  C34 UNL A   1      20.402  34.764  47.382  1.00  0.00    +0.000 C 
ATOM     50  C35 UNL A   1      19.358  35.498  47.956  1.00  0.00    +0.000 C 
ATOM     51  C36 UNL A   1      19.790  36.802  48.143  1.00  0.00    +0.000 C 
ATOM     52  N7  UNL A   1      21.085  36.864  47.653  1.00  0.00    +0.000 N 
ATOM     53  C37 UNL A   1      19.076  37.909  48.726  1.00  0.00    +0.000 C 
ATOM     65  C44 UNL A   1      19.574  39.160  48.883  1.00  0.00    +0.000 C 
ATOM     66  N8  UNL A   1      20.828  39.649  48.543  1.00  0.00    +0.000 N 
ATOM     67  C45 UNL A   1      20.826  40.913  48.884  1.00  0.00    +0.000 C 
ATOM     68  C46 UNL A   1      21.930  41.928  48.770  1.00  0.00    +0.000 C 
ATOM     80  C53 UNL A   1      23.126  41.549  48.283  1.00  0.00    +0.000 C 
ATOM     81  C54 UNL A   1      24.290  42.415  48.123  1.00  0.00    +0.000 C 
ATOM     82  C55 UNL A   1      25.289  41.709  47.571  1.00  0.00    +0.000 C 
ATOM     83  C56 UNL A   1      24.845  40.330  47.368  1.00  0.00    +0.000 C 
ATOM     84  N9  UNL A   1      23.552  40.325  47.826  1.00  0.00    +0.000 N 
ATOM     85  C57 UNL A   1      19.555  41.379  49.456  1.00  0.00    +0.000 C 
ATOM     86  C58 UNL A   1      18.840  40.263  49.467  1.00  0.00    +0.000 C 
ATOM     87  C59 UNL A   1      25.053  35.936  45.895  1.00  0.00    +0.000 C 
ATOM     88  C60 UNL A   1      25.879  36.963  46.031  1.00  0.00    +0.000 C 
ATOM    117  H27 UNL A   1      20.381  33.758  47.156  1.00  0.00    +0.000 H 
ATOM    118  H28 UNL A   1      18.425  35.131  48.200  1.00  0.00    +0.000 H 
ATOM    119  H29 UNL A   1      21.649  37.670  47.647  1.00  0.00    +0.000 H 
ATOM    120  H30 UNL A   1      24.337  43.410  48.392  1.00  0.00    +0.000 H 
ATOM    121  H31 UNL A   1      26.221  42.080  47.328  1.00  0.00    +0.000 H 
ATOM    122  H32 UNL A   1      22.982  39.522  47.827  1.00  0.00    +0.000 H 
ATOM    123  H33 UNL A   1      19.289  42.327  49.768  1.00  0.00    +0.000 H 
ATOM    124  H34 UNL A   1      17.881  40.190  49.844  1.00  0.00    +0.000 H 
ATOM    125  H35 UNL A   1      25.301  35.044  45.439  1.00  0.00    +0.000 H 
ATOM    126  H36 UNL A   1      26.879  37.032  45.782  1.00  0.00    +0.000 H 
ENDROOT
BRANCH   32   31
ATOM    115  H25 UNL A   1      28.716  40.704  43.708  1.00  0.00    +0.000 H 
ATOM    116  H26 UNL A   1      26.435  40.356  44.462  1.00  0.00    +0.000 H 
ATOM     89  C61 UNL A   1      28.050  39.400  47.246  1.00  0.00    +0.000 C 
ATOM     90  C62 UNL A   1      29.353  39.674  46.839  1.00  0.00    +0.000 C 
ATOM    127  H37 UNL A   1      27.876  39.024  48.191  1.00  0.00    +0.000 H 
ATOM     28  C19 UNL A   1      29.599  40.093  45.528  1.00  0.00    +0.000 C 
ATOM     29  C20 UNL A   1      28.535  40.354  44.663  1.00  0.00    +0.000 C 
ATOM     30  C21 UNL A   1      27.223  40.141  45.092  1.00  0.00    +0.000 C 
ATOM     31  C22 UNL A   1      26.972  39.634  46.378  1.00  0.00    +0.000 C 
ATOM    128  H38 UNL A   1      30.135  39.567  47.504  1.00  0.00    +0.000 H 
BRANCH   28   26
ATOM     26  C18 UNL A   1      30.981  40.283  45.036  1.00  0.00    +0.000 C 
ATOM     27  O3  UNL A   1      31.727  41.074  45.607  1.00  0.00    +0.000 O 
BRANCH   26   25
ATOM     25  N5  UNL A   1      31.417  39.592  43.935  1.00  0.00    +0.000 N 
ATOM    114  H24 UNL A   1      31.551  40.133  43.123  1.00  0.00    +0.000 H 
BRANCH   25   24
ATOM    113  H23 UNL A   1      31.800  37.763  44.781  1.00  0.00    +0.000 H 
ATOM    112  H22 UNL A   1      32.616  38.064  43.241  1.00  0.00    +0.000 H 
ATOM     24  C17 UNL A   1      31.710  38.175  43.798  1.00  0.00    +0.000 C 
BRANCH   24   23
ATOM    111  H21 UNL A   1      31.068  36.614  42.556  1.00  0.00    +0.000 H 
ATOM    110  H20 UNL A   1      30.095  38.108  42.428  1.00  0.00    +0.000 H 
ATOM     23  C16 UNL A   1      30.597  37.421  43.077  1.00  0.00    +0.000 C 
BRANCH   23   22
ATOM    108  H18 UNL A   1      28.726  37.462  44.078  1.00  0.00    +0.000 H 
ATOM    109  H19 UNL A   1      29.292  35.849  43.547  1.00  0.00    +0.000 H 
ATOM     22  C15 UNL A   1      29.550  36.785  43.997  1.00  0.00    +0.000 C 
BRANCH   22   21
ATOM    106  H16 UNL A   1      31.075  36.212  45.358  1.00  0.00    +0.000 H 
ATOM    107  H17 UNL A   1      29.831  37.325  46.005  1.00  0.00    +0.000 H 
ATOM     21  C14 UNL A   1      30.035  36.457  45.413  1.00  0.00    +0.000 C 
BRANCH   21   20
ATOM    105  H15 UNL A   1      29.361  34.459  45.431  1.00  0.00    +0.000 H 
ATOM     20  C13 UNL A   1      29.309  35.294  46.099  1.00  0.00    +0.000 C 
ATOM    104  H14 UNL A   1      28.303  35.598  46.302  1.00  0.00    +0.000 H 
BRANCH   20   19
ATOM     19  C12 UNL A   1      29.948  34.848  47.411  1.00  0.00    +0.000 C 
ATOM    102  H12 UNL A   1      30.885  34.375  47.202  1.00  0.00    +0.000 H 
ATOM    103  H13 UNL A   1      30.096  35.708  48.030  1.00  0.00    +0.000 H 
BRANCH   19   18
ATOM     18  N4  UNL A   1      29.088  33.914  48.112  1.00  0.00    +0.000 N 
ATOM    101  H11 UNL A   1      29.483  33.025  48.260  1.00  0.00    +0.000 H 
BRANCH   18   16
ATOM     17  O2  UNL A   1      26.906  33.565  47.943  1.00  0.00    +0.000 O 
ATOM     16  C11 UNL A   1      27.826  34.062  48.602  1.00  0.00    +0.000 C 
BRANCH   16    2
ATOM      2  C2  UNL A   1      27.533  34.803  49.912  1.00  0.00    +0.000 C 
ATOM     94  H4  UNL A   1      26.605  34.478  50.332  1.00  0.00    +0.000 H 
BRANCH    2    1
ATOM      1  C1  UNL A   1      28.512  34.444  51.024  1.00  0.00    +0.000 C 
ATOM     91  H1  UNL A   1      29.371  33.965  50.602  1.00  0.00    +0.000 H 
ATOM     92  H2  UNL A   1      28.038  33.779  51.716  1.00  0.00    +0.000 H 
ATOM     93  H3  UNL A   1      28.814  35.334  51.534  1.00  0.00    +0.000 H 
ENDBRANCH    2    1
BRANCH    2    3
ATOM      3  S1  UNL A   1      27.347  36.583  49.534  1.00  0.00    +0.000 S 
BRANCH    3    4
ATOM     97  H7  UNL A   1      19.993  36.349  51.763  1.00  0.00    +0.000 H 
ATOM     98  H8  UNL A   1      21.441  38.300  51.672  1.00  0.00    +0.000 H 
ATOM      4  C3  UNL A   1      25.682  36.870  49.973  1.00  0.00    +0.000 C 
ATOM      5  N1  UNL A   1      24.895  35.844  49.973  1.00  0.00    +0.000 N 
ATOM      6  C4  UNL A   1      23.581  36.019  50.427  1.00  0.00    +0.000 C 
ATOM      7  C5  UNL A   1      22.736  34.908  50.479  1.00  0.00    +0.000 C 
ATOM      8  C6  UNL A   1      21.431  35.026  50.967  1.00  0.00    +0.000 C 
ATOM      9  C7  UNL A   1      20.957  36.262  51.404  1.00  0.00    +0.000 C 
ATOM     10  C8  UNL A   1      21.787  37.382  51.354  1.00  0.00    +0.000 C 
ATOM     11  C9  UNL A   1      23.094  37.251  50.868  1.00  0.00    +0.000 C 
ATOM     12  C10 UNL A   1      24.007  38.406  50.837  1.00  0.00    +0.000 C 
ATOM     13  O1  UNL A   1      23.638  39.513  51.226  1.00  0.00    +0.000 O 
ATOM     14  N2  UNL A   1      25.297  38.145  50.372  1.00  0.00    +0.000 N 
ATOM     95  H5  UNL A   1      23.079  33.989  50.155  1.00  0.00    +0.000 H 
ATOM     96  H6  UNL A   1      20.818  34.197  51.004  1.00  0.00    +0.000 H 
BRANCH   14   15
ATOM     99  H9  UNL A   1      26.030  40.046  50.905  1.00  0.00    +0.000 H 
ATOM    100  H10 UNL A   1      27.002  39.225  49.770  1.00  0.00    +0.000 H 
ATOM     15  N3  UNL A   1      26.204  39.254  50.346  1.00  0.00    +0.000 N 
ENDBRANCH   14   15
ENDBRANCH    3    4
ENDBRANCH    2    3
ENDBRANCH   16    2
ENDBRANCH   18   16
ENDBRANCH   19   18
ENDBRANCH   20   19
ENDBRANCH   21   20
ENDBRANCH   22   21
ENDBRANCH   23   22
ENDBRANCH   24   23
ENDBRANCH   25   24
ENDBRANCH   26   25
ENDBRANCH   28   26
ENDBRANCH   32   31
BRANCH   36   37
ATOM     37  C27 UNL A   1      22.983  33.956  46.025  1.00  0.00    +0.000 C 
ATOM     38  C28 UNL A   1      23.617  32.963  46.786  1.00  0.00    +0.000 C 
ATOM     39  F1  UNL A   1      24.060  33.238  48.022  1.00  0.00    +0.000 F 
ATOM     40  C29 UNL A   1      23.837  31.691  46.263  1.00  0.00    +0.000 C 
ATOM     41  F2  UNL A   1      24.492  30.774  46.989  1.00  0.00    +0.000 F 
ATOM     42  C30 UNL A   1      23.397  31.378  44.987  1.00  0.00    +0.000 C 
ATOM     43  F3  UNL A   1      23.607  30.153  44.485  1.00  0.00    +0.000 F 
ATOM     44  C31 UNL A   1      22.745  32.337  44.225  1.00  0.00    +0.000 C 
ATOM     45  F4  UNL A   1      22.309  32.031  42.995  1.00  0.00    +0.000 F 
ATOM     46  C32 UNL A   1      22.550  33.618  44.734  1.00  0.00    +0.000 C 
ATOM     47  F5  UNL A   1      21.933  34.529  43.967  1.00  0.00    +0.000 F 
ENDBRANCH   36   37
BRANCH   53   54
ATOM     54  C38 UNL A   1      17.681  37.658  49.218  1.00  0.00    +0.000 C 
ATOM     55  C39 UNL A   1      16.630  37.380  48.334  1.00  0.00    +0.000 C 
ATOM     56  F6  UNL A   1      16.841  37.387  47.009  1.00  0.00    +0.000 F 
ATOM     57  C40 UNL A   1      15.345  37.130  48.808  1.00  0.00    +0.000 C 
ATOM     58  F7  UNL A   1      14.345  36.908  47.944  1.00  0.00    +0.000 F 
ATOM     59  C41 UNL A   1      15.096  37.122  50.173  1.00  0.00    +0.000 C 
ATOM     60  F8  UNL A   1      13.859  36.873  50.628  1.00  0.00    +0.000 F 
ATOM     61  C42 UNL A   1      16.124  37.378  51.065  1.00  0.00    +0.000 C 
ATOM     62  F9  UNL A   1      15.888  37.360  52.384  1.00  0.00    +0.000 F 
ATOM     63  C43 UNL A   1      17.404  37.655  50.593  1.00  0.00    +0.000 C 
ATOM     64  F10 UNL A   1      18.378  37.911  51.480  1.00  0.00    +0.000 F 
ENDBRANCH   53   54
BRANCH   68   69
ATOM     69  C47 UNL A   1      21.729  43.329  49.218  1.00  0.00    +0.000 C 
ATOM     70  C48 UNL A   1      21.963  43.696  50.550  1.00  0.00    +0.000 C 
ATOM     71  F11 UNL A   1      22.342  42.770  51.443  1.00  0.00    +0.000 F 
ATOM     72  C49 UNL A   1      21.776  45.008  50.978  1.00  0.00    +0.000 C 
ATOM     73  F12 UNL A   1      21.970  45.325  52.267  1.00  0.00    +0.000 F 
ATOM     74  C50 UNL A   1      21.376  45.984  50.078  1.00  0.00    +0.000 C 
ATOM     75  F13 UNL A   1      21.202  47.248  50.488  1.00  0.00    +0.000 F 
ATOM     76  C51 UNL A   1      21.151  45.646  48.751  1.00  0.00    +0.000 C 
ATOM     77  F14 UNL A   1      20.776  46.588  47.875  1.00  0.00    +0.000 F 
ATOM     78  C52 UNL A   1      21.314  44.330  48.328  1.00  0.00    +0.000 C 
ATOM     79  F15 UNL A   1      21.082  44.029  47.041  1.00  0.00    +0.000 F 
ENDBRANCH   68   69
TORSDOF 19
ENDMDL
MODEL 10
REMARK VINA RESULT:     -11.0     40.951     48.013
ROOT
ATOM     32  C23 UNL A   1      25.562  38.407  48.273  1.00  0.00    +0.000 C 
ATOM     33  C24 UNL A   1      25.290  37.122  47.545  1.00  0.00    +0.000 C 
ATOM     34  N6  UNL A   1      26.074  36.438  46.750  1.00  0.00    +0.000 N 
ATOM     35  C25 UNL A   1      25.351  35.308  46.388  1.00  0.00    +0.000 C 
ATOM     36  C26 UNL A   1      25.703  34.319  45.534  1.00  0.00    +0.000 C 
ATOM     48  C33 UNL A   1      26.950  34.273  44.816  1.00  0.00    +0.000 C 
ATOM     49  C34 UNL A   1      27.373  33.347  43.878  1.00  0.00    +0.000 C 
ATOM     50  C35 UNL A   1      28.672  33.687  43.483  1.00  0.00    +0.000 C 
ATOM     51  C36 UNL A   1      29.041  34.850  44.142  1.00  0.00    +0.000 C 
ATOM     52  N7  UNL A   1      27.977  35.195  44.959  1.00  0.00    +0.000 N 
ATOM     53  C37 UNL A   1      30.271  35.591  44.035  1.00  0.00    +0.000 C 
ATOM     65  C44 UNL A   1      30.555  36.731  44.709  1.00  0.00    +0.000 C 
ATOM     66  N8  UNL A   1      29.767  37.427  45.616  1.00  0.00    +0.000 N 
ATOM     67  C45 UNL A   1      30.481  38.455  45.999  1.00  0.00    +0.000 C 
ATOM     68  C46 UNL A   1      30.118  39.560  46.953  1.00  0.00    +0.000 C 
ATOM     80  C53 UNL A   1      28.892  39.574  47.509  1.00  0.00    +0.000 C 
ATOM     81  C54 UNL A   1      28.395  40.582  48.440  1.00  0.00    +0.000 C 
ATOM     82  C55 UNL A   1      27.150  40.253  48.819  1.00  0.00    +0.000 C 
ATOM     83  C56 UNL A   1      26.749  39.027  48.130  1.00  0.00    +0.000 C 
ATOM     84  N9  UNL A   1      27.843  38.699  47.369  1.00  0.00    +0.000 N 
ATOM     85  C57 UNL A   1      31.821  38.514  45.398  1.00  0.00    +0.000 C 
ATOM     86  C58 UNL A   1      31.800  37.461  44.593  1.00  0.00    +0.000 C 
ATOM     87  C59 UNL A   1      24.087  35.374  47.088  1.00  0.00    +0.000 C 
ATOM     88  C60 UNL A   1      23.972  36.508  47.764  1.00  0.00    +0.000 C 
ATOM    117  H27 UNL A   1      26.826  32.545  43.530  1.00  0.00    +0.000 H 
ATOM    118  H28 UNL A   1      29.257  33.162  42.814  1.00  0.00    +0.000 H 
ATOM    119  H29 UNL A   1      27.952  35.979  45.554  1.00  0.00    +0.000 H 
ATOM    120  H30 UNL A   1      28.918  41.414  48.756  1.00  0.00    +0.000 H 
ATOM    121  H31 UNL A   1      26.569  40.781  49.489  1.00  0.00    +0.000 H 
ATOM    122  H32 UNL A   1      27.873  37.912  46.777  1.00  0.00    +0.000 H 
ATOM    123  H33 UNL A   1      32.579  39.196  45.560  1.00  0.00    +0.000 H 
ATOM    124  H34 UNL A   1      32.574  37.196  43.962  1.00  0.00    +0.000 H 
ATOM    125  H35 UNL A   1      23.368  34.633  47.065  1.00  0.00    +0.000 H 
ATOM    126  H36 UNL A   1      23.167  36.866  48.302  1.00  0.00    +0.000 H 
ENDROOT
BRANCH   32   31
ATOM    115  H25 UNL A   1      23.505  38.779  52.397  1.00  0.00    +0.000 H 
ATOM    116  H26 UNL A   1      25.246  37.942  50.925  1.00  0.00    +0.000 H 
ATOM     89  C61 UNL A   1      23.606  39.885  48.733  1.00  0.00    +0.000 C 
ATOM     90  C62 UNL A   1      22.655  40.424  49.598  1.00  0.00    +0.000 C 
ATOM    127  H37 UNL A   1      23.613  40.166  47.740  1.00  0.00    +0.000 H 
ATOM     28  C19 UNL A   1      22.583  39.975  50.919  1.00  0.00    +0.000 C 
ATOM     29  C20 UNL A   1      23.535  39.077  51.409  1.00  0.00    +0.000 C 
ATOM     30  C21 UNL A   1      24.527  38.586  50.559  1.00  0.00    +0.000 C 
ATOM     31  C22 UNL A   1      24.552  38.964  49.207  1.00  0.00    +0.000 C 
ATOM    128  H38 UNL A   1      22.007  41.153  49.262  1.00  0.00    +0.000 H 
BRANCH   28   26
ATOM     26  C18 UNL A   1      21.514  40.446  51.826  1.00  0.00    +0.000 C 
ATOM     27  O3  UNL A   1      21.494  41.621  52.184  1.00  0.00    +0.000 O 
BRANCH   26   25
ATOM     25  N5  UNL A   1      20.564  39.568  52.279  1.00  0.00    +0.000 N 
ATOM    114  H24 UNL A   1      19.785  39.447  51.688  1.00  0.00    +0.000 H 
BRANCH   25   24
ATOM    113  H23 UNL A   1      19.667  39.065  54.054  1.00  0.00    +0.000 H 
ATOM    112  H22 UNL A   1      21.435  38.998  54.060  1.00  0.00    +0.000 H 
ATOM     24  C17 UNL A   1      20.544  38.789  53.506  1.00  0.00    +0.000 C 
BRANCH   24   23
ATOM    111  H21 UNL A   1      19.747  36.896  53.918  1.00  0.00    +0.000 H 
ATOM    110  H20 UNL A   1      21.453  36.879  53.382  1.00  0.00    +0.000 H 
ATOM     23  C16 UNL A   1      20.474  37.289  53.239  1.00  0.00    +0.000 C 
BRANCH   23   22
ATOM    108  H18 UNL A   1      19.195  36.210  51.935  1.00  0.00    +0.000 H 
ATOM    109  H19 UNL A   1      19.717  37.822  51.358  1.00  0.00    +0.000 H 
ATOM     22  C15 UNL A   1      20.000  36.907  51.833  1.00  0.00    +0.000 C 
BRANCH   22   21
ATOM    106  H16 UNL A   1      22.011  36.704  51.185  1.00  0.00    +0.000 H 
ATOM    107  H17 UNL A   1      21.016  35.218  51.113  1.00  0.00    +0.000 H 
ATOM     21  C14 UNL A   1      21.065  36.272  50.934  1.00  0.00    +0.000 C 
BRANCH   21   20
ATOM    105  H15 UNL A   1      20.195  35.669  49.111  1.00  0.00    +0.000 H 
ATOM     20  C13 UNL A   1      20.844  36.459  49.428  1.00  0.00    +0.000 C 
ATOM    104  H14 UNL A   1      21.797  36.431  48.942  1.00  0.00    +0.000 H 
BRANCH   20   19
ATOM     19  C12 UNL A   1      20.155  37.769  49.058  1.00  0.00    +0.000 C 
ATOM    102  H12 UNL A   1      19.356  37.953  49.745  1.00  0.00    +0.000 H 
ATOM    103  H13 UNL A   1      20.875  38.560  49.106  1.00  0.00    +0.000 H 
BRANCH   19   18
ATOM     18  N4  UNL A   1      19.621  37.708  47.710  1.00  0.00    +0.000 N 
ATOM    101  H11 UNL A   1      18.660  37.906  47.642  1.00  0.00    +0.000 H 
BRANCH   18   16
ATOM     17  O2  UNL A   1      21.275  38.032  46.272  1.00  0.00    +0.000 O 
ATOM     16  C11 UNL A   1      20.228  37.426  46.524  1.00  0.00    +0.000 C 
BRANCH   16    2
ATOM      2  C2  UNL A   1      19.662  36.403  45.533  1.00  0.00    +0.000 C 
ATOM     94  H4  UNL A   1      19.051  36.884  44.799  1.00  0.00    +0.000 H 
BRANCH    2    1
ATOM      1  C1  UNL A   1      20.739  35.767  44.661  1.00  0.00    +0.000 C 
ATOM     91  H1  UNL A   1      20.751  34.709  44.824  1.00  0.00    +0.000 H 
ATOM     92  H2  UNL A   1      21.694  36.178  44.916  1.00  0.00    +0.000 H 
ATOM     93  H3  UNL A   1      20.528  35.967  43.632  1.00  0.00    +0.000 H 
ENDBRANCH    2    1
BRANCH    2    3
ATOM      3  S1  UNL A   1      18.575  35.255  46.453  1.00  0.00    +0.000 S 
BRANCH    3    4
ATOM     97  H7  UNL A   1      15.766  31.745  40.218  1.00  0.00    +0.000 H 
ATOM     98  H8  UNL A   1      17.430  30.882  41.766  1.00  0.00    +0.000 H 
ATOM      4  C3  UNL A   1      18.051  34.168  45.192  1.00  0.00    +0.000 C 
ATOM      5  N1  UNL A   1      17.129  34.603  44.396  1.00  0.00    +0.000 N 
ATOM      6  C4  UNL A   1      16.765  33.801  43.306  1.00  0.00    +0.000 C 
ATOM      7  C5  UNL A   1      15.806  34.282  42.411  1.00  0.00    +0.000 C 
ATOM      8  C6  UNL A   1      15.443  33.536  41.286  1.00  0.00    +0.000 C 
ATOM      9  C7  UNL A   1      16.035  32.296  41.048  1.00  0.00    +0.000 C 
ATOM     10  C8  UNL A   1      16.991  31.800  41.934  1.00  0.00    +0.000 C 
ATOM     11  C9  UNL A   1      17.350  32.559  43.056  1.00  0.00    +0.000 C 
ATOM     12  C10 UNL A   1      18.382  32.080  43.992  1.00  0.00    +0.000 C 
ATOM     13  O1  UNL A   1      18.942  30.999  43.814  1.00  0.00    +0.000 O 
ATOM     14  N2  UNL A   1      18.686  32.940  45.048  1.00  0.00    +0.000 N 
ATOM     95  H5  UNL A   1      15.361  35.198  42.582  1.00  0.00    +0.000 H 
ATOM     96  H6  UNL A   1      14.737  33.903  40.630  1.00  0.00    +0.000 H 
BRANCH   14   15
ATOM     99  H9  UNL A   1      20.164  31.644  45.805  1.00  0.00    +0.000 H 
ATOM    100  H10 UNL A   1      19.926  33.046  46.747  1.00  0.00    +0.000 H 
ATOM     15  N3  UNL A   1      19.697  32.497  45.962  1.00  0.00    +0.000 N 
ENDBRANCH   14   15
ENDBRANCH    3    4
ENDBRANCH    2    3
ENDBRANCH   16    2
ENDBRANCH   18   16
ENDBRANCH   19   18
ENDBRANCH   20   19
ENDBRANCH   21   20
ENDBRANCH   22   21
ENDBRANCH   23   22
ENDBRANCH   24   23
ENDBRANCH   25   24
ENDBRANCH   26   25
ENDBRANCH   28   26
ENDBRANCH   32   31
BRANCH   36   37
ATOM     37  C27 UNL A   1      24.721  33.202  45.328  1.00  0.00    +0.000 C 
ATOM     38  C28 UNL A   1      23.675  33.305  44.399  1.00  0.00    +0.000 C 
ATOM     39  F1  UNL A   1      23.508  34.434  43.693  1.00  0.00    +0.000 F 
ATOM     40  C29 UNL A   1      22.767  32.265  44.223  1.00  0.00    +0.000 C 
ATOM     41  F2  UNL A   1      21.744  32.407  43.369  1.00  0.00    +0.000 F 
ATOM     42  C30 UNL A   1      22.909  31.089  44.944  1.00  0.00    +0.000 C 
ATOM     43  F3  UNL A   1      22.035  30.086  44.772  1.00  0.00    +0.000 F 
ATOM     44  C31 UNL A   1      23.950  30.954  45.850  1.00  0.00    +0.000 C 
ATOM     45  F4  UNL A   1      24.095  29.813  46.538  1.00  0.00    +0.000 F 
ATOM     46  C32 UNL A   1      24.842  32.005  46.049  1.00  0.00    +0.000 C 
ATOM     47  F5  UNL A   1      25.829  31.851  46.945  1.00  0.00    +0.000 F 
ENDBRANCH   36   37
BRANCH   53   54
ATOM     54  C38 UNL A   1      31.315  35.076  43.087  1.00  0.00    +0.000 C 
ATOM     55  C39 UNL A   1      32.240  34.097  43.474  1.00  0.00    +0.000 C 
ATOM     56  F6  UNL A   1      32.246  33.634  44.734  1.00  0.00    +0.000 F 
ATOM     57  C40 UNL A   1      33.189  33.616  42.577  1.00  0.00    +0.000 C 
ATOM     58  F7  UNL A   1      34.092  32.711  42.980  1.00  0.00    +0.000 F 
ATOM     59  C41 UNL A   1      33.211  34.081  41.270  1.00  0.00    +0.000 C 
ATOM     60  F8  UNL A   1      34.121  33.610  40.405  1.00  0.00    +0.000 F 
ATOM     61  C42 UNL A   1      32.294  35.037  40.861  1.00  0.00    +0.000 C 
ATOM     62  F9  UNL A   1      32.306  35.479  39.596  1.00  0.00    +0.000 F 
ATOM     63  C43 UNL A   1      31.361  35.540  41.764  1.00  0.00    +0.000 C 
ATOM     64  F10 UNL A   1      30.494  36.472  41.343  1.00  0.00    +0.000 F 
ENDBRANCH   53   54
BRANCH   68   69
ATOM     69  C47 UNL A   1      31.078  40.650  47.262  1.00  0.00    +0.000 C 
ATOM     70  C48 UNL A   1      32.057  40.483  48.251  1.00  0.00    +0.000 C 
ATOM     71  F11 UNL A   1      32.113  39.341  48.951  1.00  0.00    +0.000 F 
ATOM     72  C49 UNL A   1      32.961  41.501  48.547  1.00  0.00    +0.000 C 
ATOM     73  F12 UNL A   1      33.864  41.330  49.523  1.00  0.00    +0.000 F 
ATOM     74  C50 UNL A   1      32.919  42.695  47.843  1.00  0.00    +0.000 C 
ATOM     75  F13 UNL A   1      33.793  43.672  48.124  1.00  0.00    +0.000 F 
ATOM     76  C51 UNL A   1      31.967  42.877  46.851  1.00  0.00    +0.000 C 
ATOM     77  F14 UNL A   1      31.931  44.025  46.161  1.00  0.00    +0.000 F 
ATOM     78  C52 UNL A   1      31.047  41.870  46.571  1.00  0.00    +0.000 C 
ATOM     79  F15 UNL A   1      30.132  42.076  45.613  1.00  0.00    +0.000 F 
ENDBRANCH   68   69
TORSDOF 19
ENDMDL
