MODEL 1
REMARK VINA RESULT:      -8.4      0.000      0.000
ROOT
ATOM     27  C21 UNL A   1      13.839  53.863   5.020  1.00  0.00    +0.000 C 
ATOM     28  C22 UNL A   1      14.792  54.304   3.947  1.00  0.00    +0.000 C 
ATOM     29  N3  UNL A   1      15.287  53.618   2.947  1.00  0.00    +0.000 N 
ATOM     30  C23 UNL A   1      16.084  54.505   2.237  1.00  0.00    +0.000 C 
ATOM     31  C24 UNL A   1      16.859  54.264   1.153  1.00  0.00    +0.000 C 
ATOM     43  C31 UNL A   1      16.984  52.981   0.511  1.00  0.00    +0.000 C 
ATOM     44  C32 UNL A   1      17.795  52.621  -0.551  1.00  0.00    +0.000 C 
ATOM     45  C33 UNL A   1      17.538  51.282  -0.865  1.00  0.00    +0.000 C 
ATOM     46  C34 UNL A   1      16.598  50.794   0.029  1.00  0.00    +0.000 C 
ATOM     47  N4  UNL A   1      16.268  51.847   0.868  1.00  0.00    +0.000 N 
ATOM     48  C35 UNL A   1      16.038  49.468   0.113  1.00  0.00    +0.000 C 
ATOM     60  C42 UNL A   1      15.155  49.056   1.054  1.00  0.00    +0.000 C 
ATOM     61  N5  UNL A   1      14.594  49.779   2.097  1.00  0.00    +0.000 N 
ATOM     62  C43 UNL A   1      13.790  48.950   2.717  1.00  0.00    +0.000 C 
ATOM     63  C44 UNL A   1      12.931  49.194   3.926  1.00  0.00    +0.000 C 
ATOM     75  C51 UNL A   1      12.971  50.393   4.537  1.00  0.00    +0.000 C 
ATOM     76  C52 UNL A   1      12.196  50.766   5.715  1.00  0.00    +0.000 C 
ATOM     77  C53 UNL A   1      12.427  52.056   6.002  1.00  0.00    +0.000 C 
ATOM     78  C54 UNL A   1      13.398  52.591   5.046  1.00  0.00    +0.000 C 
ATOM     79  N6  UNL A   1      13.687  51.524   4.232  1.00  0.00    +0.000 N 
ATOM     80  C55 UNL A   1      13.740  47.606   2.128  1.00  0.00    +0.000 C 
ATOM     81  C56 UNL A   1      14.613  47.715   1.136  1.00  0.00    +0.000 C 
ATOM     82  C57 UNL A   1      15.966  55.792   2.891  1.00  0.00    +0.000 C 
ATOM     83  C58 UNL A   1      15.228  55.707   3.988  1.00  0.00    +0.000 C 
ATOM    109  H24 UNL A   1      18.473  53.234  -1.029  1.00  0.00    +0.000 H 
ATOM    110  H25 UNL A   1      17.975  50.747  -1.632  1.00  0.00    +0.000 H 
ATOM    111  H26 UNL A   1      15.622  51.797   1.609  1.00  0.00    +0.000 H 
ATOM    112  H27 UNL A   1      11.569  50.138   6.243  1.00  0.00    +0.000 H 
ATOM    113  H28 UNL A   1      11.992  52.586   6.772  1.00  0.00    +0.000 H 
ATOM    114  H29 UNL A   1      14.345  51.566   3.500  1.00  0.00    +0.000 H 
ATOM    115  H30 UNL A   1      13.175  46.790   2.411  1.00  0.00    +0.000 H 
ATOM    116  H31 UNL A   1      14.873  46.943   0.503  1.00  0.00    +0.000 H 
ATOM    117  H32 UNL A   1      16.401  56.662   2.547  1.00  0.00    +0.000 H 
ATOM    118  H33 UNL A   1      15.013  56.435   4.688  1.00  0.00    +0.000 H 
ENDROOT
BRANCH   27   26
ATOM    107  H22 UNL A   1      10.892  57.145   6.400  1.00  0.00    +0.000 H 
ATOM    108  H23 UNL A   1      11.592  55.379   4.888  1.00  0.00    +0.000 H 
ATOM     84  C59 UNL A   1      13.997  55.059   7.206  1.00  0.00    +0.000 C 
ATOM     85  C60 UNL A   1      13.551  56.021   8.110  1.00  0.00    +0.000 C 
ATOM    120  H35 UNL A   1      14.022  56.134   9.020  1.00  0.00    +0.000 H 
ATOM     23  C17 UNL A   1      12.462  56.833   7.779  1.00  0.00    +0.000 C 
ATOM     24  C18 UNL A   1      11.732  56.585   6.612  1.00  0.00    +0.000 C 
ATOM     25  C19 UNL A   1      12.144  55.579   5.736  1.00  0.00    +0.000 C 
ATOM    119  H34 UNL A   1      14.840  54.505   7.422  1.00  0.00    +0.000 H 
ATOM     26  C20 UNL A   1      13.306  54.838   6.005  1.00  0.00    +0.000 C 
BRANCH   23   21
ATOM     21  C16 UNL A   1      12.055  57.962   8.646  1.00  0.00    +0.000 C 
ATOM     22  O4  UNL A   1      12.389  59.105   8.347  1.00  0.00    +0.000 O 
BRANCH   21   20
ATOM    106  H21 UNL A   1      11.366  58.459  10.457  1.00  0.00    +0.000 H 
ATOM     20  N2  UNL A   1      11.337  57.733   9.794  1.00  0.00    +0.000 N 
BRANCH   20   19
ATOM    105  H20 UNL A   1      10.486  55.927   9.329  1.00  0.00    +0.000 H 
ATOM     19  C15 UNL A   1      10.540  56.577  10.177  1.00  0.00    +0.000 C 
ATOM    104  H19 UNL A   1       9.570  56.915  10.479  1.00  0.00    +0.000 H 
BRANCH   19   18
ATOM     18  C14 UNL A   1      11.161  55.786  11.326  1.00  0.00    +0.000 C 
ATOM    102  H17 UNL A   1      11.885  56.411  11.805  1.00  0.00    +0.000 H 
ATOM    103  H18 UNL A   1      10.348  55.504  11.962  1.00  0.00    +0.000 H 
BRANCH   18   17
ATOM     17  C13 UNL A   1      11.855  54.483  10.923  1.00  0.00    +0.000 C 
ATOM    100  H15 UNL A   1      11.133  53.695  10.974  1.00  0.00    +0.000 H 
ATOM    101  H16 UNL A   1      12.242  54.649   9.939  1.00  0.00    +0.000 H 
BRANCH   17   16
ATOM     98  H13 UNL A   1      13.324  54.923  12.388  1.00  0.00    +0.000 H 
ATOM     99  H14 UNL A   1      12.741  53.227  12.347  1.00  0.00    +0.000 H 
ATOM     16  C12 UNL A   1      13.056  54.081  11.784  1.00  0.00    +0.000 C 
BRANCH   16   15
ATOM     97  H12 UNL A   1      15.093  54.300  11.307  1.00  0.00    +0.000 H 
ATOM     15  C11 UNL A   1      14.306  53.637  11.013  1.00  0.00    +0.000 C 
ATOM     96  H11 UNL A   1      14.086  53.682   9.966  1.00  0.00    +0.000 H 
BRANCH   15   14
ATOM     94  H9  UNL A   1      15.523  52.278  12.114  1.00  0.00    +0.000 H 
ATOM     14  C10 UNL A   1      14.790  52.223  11.337  1.00  0.00    +0.000 C 
ATOM     95  H10 UNL A   1      13.943  51.646  11.647  1.00  0.00    +0.000 H 
BRANCH   14   13
ATOM     13  N1  UNL A   1      15.377  51.576  10.183  1.00  0.00    +0.000 N 
ATOM     93  H8  UNL A   1      16.357  51.497  10.129  1.00  0.00    +0.000 H 
BRANCH   13    2
ATOM      1  O1  UNL A   1      13.434  50.759   9.276  1.00  0.00    +0.000 O 
ATOM      2  C1  UNL A   1      14.614  51.071   9.166  1.00  0.00    +0.000 C 
BRANCH    2    3
ATOM      3  C2  UNL A   1      15.278  50.945   7.843  1.00  0.00    +0.000 C 
ATOM     86  H1  UNL A   1      15.597  51.817   7.392  1.00  0.00    +0.000 H 
BRANCH    3    4
ATOM      4  C3  UNL A   1      15.501  49.797   7.183  1.00  0.00    +0.000 C 
ATOM     87  H2  UNL A   1      15.107  48.922   7.561  1.00  0.00    +0.000 H 
BRANCH    4    5
ATOM      5  C4  UNL A   1      16.286  49.742   5.940  1.00  0.00    +0.000 C 
ATOM      6  C5  UNL A   1      16.534  48.533   5.264  1.00  0.00    +0.000 C 
ATOM      7  C6  UNL A   1      17.306  48.510   4.096  1.00  0.00    +0.000 C 
ATOM      8  C7  UNL A   1      17.818  49.701   3.600  1.00  0.00    +0.000 C 
ATOM     10  C8  UNL A   1      17.553  50.903   4.249  1.00  0.00    +0.000 C 
ATOM     12  C9  UNL A   1      16.787  50.936   5.406  1.00  0.00    +0.000 C 
ATOM     88  H3  UNL A   1      16.142  47.653   5.632  1.00  0.00    +0.000 H 
ATOM     89  H4  UNL A   1      17.491  47.619   3.610  1.00  0.00    +0.000 H 
ATOM     92  H7  UNL A   1      16.587  51.835   5.872  1.00  0.00    +0.000 H 
BRANCH    8    9
ATOM      9  O2  UNL A   1      18.595  49.743   2.476  1.00  0.00    +0.000 O 
ATOM     90  H5  UNL A   1      19.403  49.269   2.447  1.00  0.00    +0.000 H 
ENDBRANCH    8    9
BRANCH   10   11
ATOM     11  O3  UNL A   1      18.056  52.071   3.752  1.00  0.00    +0.000 O 
ATOM     91  H6  UNL A   1      18.851  52.425   4.102  1.00  0.00    +0.000 H 
ENDBRANCH   10   11
ENDBRANCH    4    5
ENDBRANCH    3    4
ENDBRANCH    2    3
ENDBRANCH   13    2
ENDBRANCH   14   13
ENDBRANCH   15   14
ENDBRANCH   16   15
ENDBRANCH   17   16
ENDBRANCH   18   17
ENDBRANCH   19   18
ENDBRANCH   20   19
ENDBRANCH   21   20
ENDBRANCH   23   21
ENDBRANCH   27   26
BRANCH   31   32
ATOM     33  C26 UNL A   1      17.119  56.216  -0.444  1.00  0.00    +0.000 C 
ATOM     34  F1  UNL A   1      15.920  55.936  -0.978  1.00  0.00    +0.000 F 
ATOM     35  C27 UNL A   1      17.855  57.276  -0.968  1.00  0.00    +0.000 C 
ATOM     36  F2  UNL A   1      17.365  57.987  -1.993  1.00  0.00    +0.000 F 
ATOM     37  C28 UNL A   1      19.100  57.585  -0.443  1.00  0.00    +0.000 C 
ATOM     38  F3  UNL A   1      19.807  58.606  -0.947  1.00  0.00    +0.000 F 
ATOM     39  C29 UNL A   1      19.618  56.829   0.599  1.00  0.00    +0.000 C 
ATOM     40  F4  UNL A   1      20.817  57.135   1.115  1.00  0.00    +0.000 F 
ATOM     41  C30 UNL A   1      18.897  55.750   1.105  1.00  0.00    +0.000 C 
ATOM     42  F5  UNL A   1      19.432  55.028   2.100  1.00  0.00    +0.000 F 
ATOM     32  C25 UNL A   1      17.635  55.420   0.591  1.00  0.00    +0.000 C 
ENDBRANCH   31   32
BRANCH   48   49
ATOM     49  C36 UNL A   1      16.475  48.457  -0.907  1.00  0.00    +0.000 C 
ATOM     50  C37 UNL A   1      15.722  48.214  -2.064  1.00  0.00    +0.000 C 
ATOM     51  F6  UNL A   1      14.556  48.851  -2.257  1.00  0.00    +0.000 F 
ATOM     52  C38 UNL A   1      16.147  47.287  -3.013  1.00  0.00    +0.000 C 
ATOM     53  F7  UNL A   1      15.391  47.041  -4.092  1.00  0.00    +0.000 F 
ATOM     54  C39 UNL A   1      17.343  46.610  -2.836  1.00  0.00    +0.000 C 
ATOM     55  F8  UNL A   1      17.754  45.723  -3.753  1.00  0.00    +0.000 F 
ATOM     56  C40 UNL A   1      18.111  46.845  -1.705  1.00  0.00    +0.000 C 
ATOM     57  F9  UNL A   1      19.273  46.198  -1.538  1.00  0.00    +0.000 F 
ATOM     58  C41 UNL A   1      17.677  47.751  -0.742  1.00  0.00    +0.000 C 
ATOM     59  F10 UNL A   1      18.435  47.951   0.346  1.00  0.00    +0.000 F 
ENDBRANCH   48   49
BRANCH   63   64
ATOM     65  C46 UNL A   1      10.750  47.951   3.968  1.00  0.00    +0.000 C 
ATOM     66  F11 UNL A   1      10.275  48.778   3.026  1.00  0.00    +0.000 F 
ATOM     67  C47 UNL A   1       9.928  46.937   4.456  1.00  0.00    +0.000 C 
ATOM     68  F12 UNL A   1       8.680  46.805   3.984  1.00  0.00    +0.000 F 
ATOM     69  C48 UNL A   1      10.394  46.070   5.432  1.00  0.00    +0.000 C 
ATOM     70  F13 UNL A   1       9.607  45.088   5.892  1.00  0.00    +0.000 F 
ATOM     71  C49 UNL A   1      11.678  46.225   5.934  1.00  0.00    +0.000 C 
ATOM     72  F14 UNL A   1      12.138  45.381   6.868  1.00  0.00    +0.000 F 
ATOM     73  C50 UNL A   1      12.493  47.253   5.466  1.00  0.00    +0.000 C 
ATOM     74  F15 UNL A   1      13.729  47.380   5.969  1.00  0.00    +0.000 F 
ATOM     64  C45 UNL A   1      12.048  48.130   4.466  1.00  0.00    +0.000 C 
ENDBRANCH   63   64
TORSDOF 19
ENDMDL
MODEL 2
REMARK VINA RESULT:      -8.3     22.037     28.424
ROOT
ATOM     27  C21 UNL A   1      19.919  23.801  -2.491  1.00  0.00    +0.000 C 
ATOM     28  C22 UNL A   1      20.491  25.103  -2.010  1.00  0.00    +0.000 C 
ATOM     29  N3  UNL A   1      19.881  26.237  -1.771  1.00  0.00    +0.000 N 
ATOM     30  C23 UNL A   1      20.862  27.106  -1.315  1.00  0.00    +0.000 C 
ATOM     31  C24 UNL A   1      20.746  28.416  -0.991  1.00  0.00    +0.000 C 
ATOM     43  C31 UNL A   1      19.519  29.165  -1.057  1.00  0.00    +0.000 C 
ATOM     44  C32 UNL A   1      19.314  30.512  -0.814  1.00  0.00    +0.000 C 
ATOM     45  C33 UNL A   1      17.947  30.780  -0.949  1.00  0.00    +0.000 C 
ATOM     46  C34 UNL A   1      17.305  29.609  -1.319  1.00  0.00    +0.000 C 
ATOM     47  N4  UNL A   1      18.282  28.627  -1.382  1.00  0.00    +0.000 N 
ATOM     48  C35 UNL A   1      15.906  29.397  -1.591  1.00  0.00    +0.000 C 
ATOM     60  C42 UNL A   1      15.363  28.224  -1.998  1.00  0.00    +0.000 C 
ATOM     61  N5  UNL A   1      15.989  27.006  -2.220  1.00  0.00    +0.000 N 
ATOM     62  C43 UNL A   1      15.041  26.176  -2.583  1.00  0.00    +0.000 C 
ATOM     63  C44 UNL A   1      15.148  24.724  -2.956  1.00  0.00    +0.000 C 
ATOM     75  C51 UNL A   1      16.359  24.135  -2.986  1.00  0.00    +0.000 C 
ATOM     76  C52 UNL A   1      16.610  22.740  -3.330  1.00  0.00    +0.000 C 
ATOM     77  C53 UNL A   1      17.918  22.480  -3.180  1.00  0.00    +0.000 C 
ATOM     78  C54 UNL A   1      18.603  23.704  -2.761  1.00  0.00    +0.000 C 
ATOM     79  N6  UNL A   1      17.603  24.642  -2.701  1.00  0.00    +0.000 N 
ATOM     80  C55 UNL A   1      13.700  26.773  -2.620  1.00  0.00    +0.000 C 
ATOM     81  C56 UNL A   1      13.956  28.029  -2.284  1.00  0.00    +0.000 C 
ATOM     82  C57 UNL A   1      22.097  26.353  -1.260  1.00  0.00    +0.000 C 
ATOM     83  C58 UNL A   1      21.935  25.127  -1.737  1.00  0.00    +0.000 C 
ATOM    109  H24 UNL A   1      20.044  31.202  -0.575  1.00  0.00    +0.000 H 
ATOM    110  H25 UNL A   1      17.493  31.695  -0.799  1.00  0.00    +0.000 H 
ATOM    111  H26 UNL A   1      18.121  27.686  -1.623  1.00  0.00    +0.000 H 
ATOM    112  H27 UNL A   1      15.896  22.062  -3.640  1.00  0.00    +0.000 H 
ATOM    113  H28 UNL A   1      18.368  21.565  -3.335  1.00  0.00    +0.000 H 
ATOM    114  H29 UNL A   1      17.763  25.587  -2.475  1.00  0.00    +0.000 H 
ATOM    115  H30 UNL A   1      12.795  26.331  -2.847  1.00  0.00    +0.000 H 
ATOM    116  H31 UNL A   1      13.244  28.774  -2.233  1.00  0.00    +0.000 H 
ATOM    117  H32 UNL A   1      22.990  26.724  -0.898  1.00  0.00    +0.000 H 
ATOM    118  H33 UNL A   1      22.637  24.385  -1.879  1.00  0.00    +0.000 H 
ENDROOT
BRANCH   27   26
ATOM    107  H22 UNL A   1      22.710  20.566  -0.729  1.00  0.00    +0.000 H 
ATOM    108  H23 UNL A   1      21.117  22.385  -0.509  1.00  0.00    +0.000 H 
ATOM     84  C59 UNL A   1      21.039  22.027  -3.845  1.00  0.00    +0.000 C 
ATOM     85  C60 UNL A   1      21.895  20.934  -3.962  1.00  0.00    +0.000 C 
ATOM    120  H35 UNL A   1      22.036  20.483  -4.879  1.00  0.00    +0.000 H 
ATOM     23  C17 UNL A   1      22.562  20.450  -2.833  1.00  0.00    +0.000 C 
ATOM     24  C18 UNL A   1      22.263  20.965  -1.568  1.00  0.00    +0.000 C 
ATOM     25  C19 UNL A   1      21.358  22.021  -1.444  1.00  0.00    +0.000 C 
ATOM    119  H34 UNL A   1      20.598  22.425  -4.689  1.00  0.00    +0.000 H 
ATOM     26  C20 UNL A   1      20.773  22.590  -2.587  1.00  0.00    +0.000 C 
BRANCH   23   21
ATOM     21  C16 UNL A   1      23.590  19.391  -2.945  1.00  0.00    +0.000 C 
ATOM     22  O4  UNL A   1      23.456  18.347  -2.313  1.00  0.00    +0.000 O 
BRANCH   21   20
ATOM    106  H21 UNL A   1      24.669  19.166  -4.615  1.00  0.00    +0.000 H 
ATOM     20  N2  UNL A   1      24.704  19.584  -3.725  1.00  0.00    +0.000 N 
BRANCH   20   19
ATOM    105  H20 UNL A   1      26.715  19.596  -3.326  1.00  0.00    +0.000 H 
ATOM     19  C15 UNL A   1      25.928  20.314  -3.432  1.00  0.00    +0.000 C 
ATOM    104  H19 UNL A   1      25.785  20.878  -2.534  1.00  0.00    +0.000 H 
BRANCH   19   18
ATOM     18  C14 UNL A   1      26.327  21.272  -4.552  1.00  0.00    +0.000 C 
ATOM    102  H17 UNL A   1      27.380  21.174  -4.712  1.00  0.00    +0.000 H 
ATOM    103  H18 UNL A   1      25.736  20.995  -5.401  1.00  0.00    +0.000 H 
BRANCH   18   17
ATOM     17  C13 UNL A   1      26.025  22.749  -4.289  1.00  0.00    +0.000 C 
ATOM    100  H15 UNL A   1      26.323  22.972  -3.286  1.00  0.00    +0.000 H 
ATOM    101  H16 UNL A   1      26.566  23.296  -5.032  1.00  0.00    +0.000 H 
BRANCH   17   16
ATOM     98  H13 UNL A   1      24.159  22.637  -5.293  1.00  0.00    +0.000 H 
ATOM     99  H14 UNL A   1      24.082  22.917  -3.523  1.00  0.00    +0.000 H 
ATOM     16  C12 UNL A   1      24.558  23.161  -4.449  1.00  0.00    +0.000 C 
BRANCH   16   15
ATOM     97  H12 UNL A   1      25.037  24.986  -5.381  1.00  0.00    +0.000 H 
ATOM     15  C11 UNL A   1      24.311  24.660  -4.665  1.00  0.00    +0.000 C 
ATOM     96  H11 UNL A   1      24.402  25.153  -3.719  1.00  0.00    +0.000 H 
BRANCH   15   14
ATOM     94  H9  UNL A   1      22.745  24.352  -6.077  1.00  0.00    +0.000 H 
ATOM     14  C10 UNL A   1      22.942  25.005  -5.252  1.00  0.00    +0.000 C 
ATOM     95  H10 UNL A   1      22.210  24.881  -4.480  1.00  0.00    +0.000 H 
BRANCH   14   13
ATOM     13  N1  UNL A   1      22.882  26.375  -5.714  1.00  0.00    +0.000 N 
ATOM     93  H8  UNL A   1      22.934  27.104  -5.053  1.00  0.00    +0.000 H 
BRANCH   13    2
ATOM      1  O1  UNL A   1      21.949  27.503  -7.482  1.00  0.00    +0.000 O 
ATOM      2  C1  UNL A   1      22.754  26.691  -7.039  1.00  0.00    +0.000 C 
BRANCH    2    3
ATOM      3  C2  UNL A   1      23.697  26.021  -7.970  1.00  0.00    +0.000 C 
ATOM     86  H1  UNL A   1      23.314  25.275  -8.571  1.00  0.00    +0.000 H 
BRANCH    3    4
ATOM      4  C3  UNL A   1      25.004  26.302  -8.100  1.00  0.00    +0.000 C 
ATOM     87  H2  UNL A   1      25.282  27.250  -8.397  1.00  0.00    +0.000 H 
BRANCH    4    5
ATOM      5  C4  UNL A   1      26.054  25.307  -7.835  1.00  0.00    +0.000 C 
ATOM      6  C5  UNL A   1      25.993  23.998  -8.346  1.00  0.00    +0.000 C 
ATOM      7  C6  UNL A   1      26.998  23.067  -8.055  1.00  0.00    +0.000 C 
ATOM      8  C7  UNL A   1      28.070  23.453  -7.263  1.00  0.00    +0.000 C 
ATOM     10  C8  UNL A   1      28.150  24.755  -6.778  1.00  0.00    +0.000 C 
ATOM     12  C9  UNL A   1      27.160  25.685  -7.062  1.00  0.00    +0.000 C 
ATOM     88  H3  UNL A   1      25.199  23.721  -8.942  1.00  0.00    +0.000 H 
ATOM     89  H4  UNL A   1      26.941  22.106  -8.426  1.00  0.00    +0.000 H 
ATOM     92  H7  UNL A   1      27.237  26.652  -6.707  1.00  0.00    +0.000 H 
BRANCH    8    9
ATOM      9  O2  UNL A   1      29.071  22.586  -6.927  1.00  0.00    +0.000 O 
ATOM     90  H5  UNL A   1      29.680  22.812  -6.252  1.00  0.00    +0.000 H 
ENDBRANCH    8    9
BRANCH   10   11
ATOM     11  O3  UNL A   1      29.210  25.129  -6.003  1.00  0.00    +0.000 O 
ATOM     91  H6  UNL A   1      29.932  24.543  -5.881  1.00  0.00    +0.000 H 
ENDBRANCH   10   11
ENDBRANCH    4    5
ENDBRANCH    3    4
ENDBRANCH    2    3
ENDBRANCH   13    2
ENDBRANCH   14   13
ENDBRANCH   15   14
ENDBRANCH   16   15
ENDBRANCH   17   16
ENDBRANCH   18   17
ENDBRANCH   19   18
ENDBRANCH   20   19
ENDBRANCH   21   20
ENDBRANCH   23   21
ENDBRANCH   27   26
BRANCH   31   32
ATOM     33  C26 UNL A   1      22.285  29.279   0.830  1.00  0.00    +0.000 C 
ATOM     34  F1  UNL A   1      21.436  28.819   1.762  1.00  0.00    +0.000 F 
ATOM     35  C27 UNL A   1      23.432  29.951   1.243  1.00  0.00    +0.000 C 
ATOM     36  F2  UNL A   1      23.665  30.135   2.550  1.00  0.00    +0.000 F 
ATOM     37  C28 UNL A   1      24.325  30.445   0.304  1.00  0.00    +0.000 C 
ATOM     38  F3  UNL A   1      25.430  31.091   0.702  1.00  0.00    +0.000 F 
ATOM     39  C29 UNL A   1      24.067  30.278  -1.049  1.00  0.00    +0.000 C 
ATOM     40  F4  UNL A   1      24.936  30.745  -1.957  1.00  0.00    +0.000 F 
ATOM     41  C30 UNL A   1      22.905  29.632  -1.465  1.00  0.00    +0.000 C 
ATOM     42  F5  UNL A   1      22.676  29.503  -2.780  1.00  0.00    +0.000 F 
ATOM     32  C25 UNL A   1      21.989  29.123  -0.533  1.00  0.00    +0.000 C 
ENDBRANCH   31   32
BRANCH   48   49
ATOM     49  C36 UNL A   1      14.976  30.564  -1.431  1.00  0.00    +0.000 C 
ATOM     50  C37 UNL A   1      14.702  31.112  -0.170  1.00  0.00    +0.000 C 
ATOM     51  F6  UNL A   1      15.232  30.564   0.934  1.00  0.00    +0.000 F 
ATOM     52  C38 UNL A   1      13.852  32.208  -0.036  1.00  0.00    +0.000 C 
ATOM     53  F7  UNL A   1      13.572  32.691   1.183  1.00  0.00    +0.000 F 
ATOM     54  C39 UNL A   1      13.285  32.790  -1.158  1.00  0.00    +0.000 C 
ATOM     55  F8  UNL A   1      12.473  33.848  -1.028  1.00  0.00    +0.000 F 
ATOM     56  C40 UNL A   1      13.554  32.272  -2.417  1.00  0.00    +0.000 C 
ATOM     57  F9  UNL A   1      13.013  32.841  -3.504  1.00  0.00    +0.000 F 
ATOM     58  C41 UNL A   1      14.381  31.161  -2.553  1.00  0.00    +0.000 C 
ATOM     59  F10 UNL A   1      14.615  30.676  -3.781  1.00  0.00    +0.000 F 
ENDBRANCH   48   49
BRANCH   63   64
ATOM     65  C46 UNL A   1      13.399  23.012  -2.397  1.00  0.00    +0.000 C 
ATOM     66  F11 UNL A   1      13.996  22.806  -1.215  1.00  0.00    +0.000 F 
ATOM     67  C47 UNL A   1      12.254  22.285  -2.713  1.00  0.00    +0.000 C 
ATOM     68  F12 UNL A   1      11.768  21.391  -1.839  1.00  0.00    +0.000 F 
ATOM     69  C48 UNL A   1      11.619  22.477  -3.931  1.00  0.00    +0.000 C 
ATOM     70  F13 UNL A   1      10.510  21.786  -4.228  1.00  0.00    +0.000 F 
ATOM     71  C49 UNL A   1      12.137  23.386  -4.842  1.00  0.00    +0.000 C 
ATOM     72  F14 UNL A   1      11.518  23.586  -6.013  1.00  0.00    +0.000 F 
ATOM     73  C50 UNL A   1      13.296  24.097  -4.538  1.00  0.00    +0.000 C 
ATOM     74  F15 UNL A   1      13.775  24.968  -5.437  1.00  0.00    +0.000 F 
ATOM     64  C45 UNL A   1      13.944  23.930  -3.306  1.00  0.00    +0.000 C 
ENDBRANCH   63   64
TORSDOF 19
ENDMDL
MODEL 3
REMARK VINA RESULT:      -8.1      0.952      2.041
ROOT
ATOM     27  C21 UNL A   1      13.947  53.648   5.332  1.00  0.00    +0.000 C 
ATOM     28  C22 UNL A   1      14.862  54.125   4.242  1.00  0.00    +0.000 C 
ATOM     29  N3  UNL A   1      15.332  53.470   3.210  1.00  0.00    +0.000 N 
ATOM     30  C23 UNL A   1      16.099  54.383   2.500  1.00  0.00    +0.000 C 
ATOM     31  C24 UNL A   1      16.842  54.177   1.386  1.00  0.00    +0.000 C 
ATOM     43  C31 UNL A   1      16.959  52.912   0.708  1.00  0.00    +0.000 C 
ATOM     44  C32 UNL A   1      17.740  52.588  -0.387  1.00  0.00    +0.000 C 
ATOM     45  C33 UNL A   1      17.486  51.255  -0.728  1.00  0.00    +0.000 C 
ATOM     46  C34 UNL A   1      16.578  50.735   0.181  1.00  0.00    +0.000 C 
ATOM     47  N4  UNL A   1      16.265  51.762   1.057  1.00  0.00    +0.000 N 
ATOM     48  C35 UNL A   1      16.033  49.402   0.247  1.00  0.00    +0.000 C 
ATOM     60  C42 UNL A   1      15.183  48.958   1.204  1.00  0.00    +0.000 C 
ATOM     61  N5  UNL A   1      14.647  49.648   2.282  1.00  0.00    +0.000 N 
ATOM     62  C43 UNL A   1      13.871  48.795   2.905  1.00  0.00    +0.000 C 
ATOM     63  C44 UNL A   1      13.046  48.999   4.145  1.00  0.00    +0.000 C 
ATOM     75  C51 UNL A   1      13.095  50.182   4.786  1.00  0.00    +0.000 C 
ATOM     76  C52 UNL A   1      12.353  50.517   5.996  1.00  0.00    +0.000 C 
ATOM     77  C53 UNL A   1      12.582  51.802   6.309  1.00  0.00    +0.000 C 
ATOM     78  C54 UNL A   1      13.517  52.371   5.338  1.00  0.00    +0.000 C 
ATOM     79  N6  UNL A   1      13.791  51.328   4.488  1.00  0.00    +0.000 N 
ATOM     80  C55 UNL A   1      13.815  47.466   2.282  1.00  0.00    +0.000 C 
ATOM     81  C56 UNL A   1      14.655  47.610   1.267  1.00  0.00    +0.000 C 
ATOM     82  C57 UNL A   1      15.989  55.651   3.191  1.00  0.00    +0.000 C 
ATOM     83  C58 UNL A   1      15.286  55.531   4.307  1.00  0.00    +0.000 C 
ATOM    109  H24 UNL A   1      18.398  53.220  -0.870  1.00  0.00    +0.000 H 
ATOM    110  H25 UNL A   1      17.903  50.744  -1.522  1.00  0.00    +0.000 H 
ATOM    111  H26 UNL A   1      15.642  51.688   1.816  1.00  0.00    +0.000 H 
ATOM    112  H27 UNL A   1      11.748  49.870   6.526  1.00  0.00    +0.000 H 
ATOM    113  H28 UNL A   1      12.166  52.307   7.106  1.00  0.00    +0.000 H 
ATOM    114  H29 UNL A   1      14.426  51.396   3.738  1.00  0.00    +0.000 H 
ATOM    115  H30 UNL A   1      13.266  46.638   2.561  1.00  0.00    +0.000 H 
ATOM    116  H31 UNL A   1      14.903  46.857   0.607  1.00  0.00    +0.000 H 
ATOM    117  H32 UNL A   1      16.406  56.534   2.857  1.00  0.00    +0.000 H 
ATOM    118  H33 UNL A   1      15.087  56.238   5.032  1.00  0.00    +0.000 H 
ENDROOT
BRANCH   27   26
ATOM    107  H22 UNL A   1      13.890  55.523   9.556  1.00  0.00    +0.000 H 
ATOM    108  H23 UNL A   1      14.904  54.162   7.819  1.00  0.00    +0.000 H 
ATOM     84  C59 UNL A   1      12.306  55.375   6.077  1.00  0.00    +0.000 C 
ATOM     85  C60 UNL A   1      11.769  56.215   7.051  1.00  0.00    +0.000 C 
ATOM    120  H35 UNL A   1      10.980  56.838   6.820  1.00  0.00    +0.000 H 
ATOM     23  C17 UNL A   1      12.303  56.210   8.343  1.00  0.00    +0.000 C 
ATOM     24  C18 UNL A   1      13.461  55.477   8.619  1.00  0.00    +0.000 C 
ATOM     25  C19 UNL A   1      14.036  54.683   7.624  1.00  0.00    +0.000 C 
ATOM    119  H34 UNL A   1      11.870  55.331   5.142  1.00  0.00    +0.000 H 
ATOM     26  C20 UNL A   1      13.435  54.592   6.358  1.00  0.00    +0.000 C 
BRANCH   23   21
ATOM     21  C16 UNL A   1      11.666  56.973   9.439  1.00  0.00    +0.000 C 
ATOM     22  O4  UNL A   1      11.903  58.172   9.561  1.00  0.00    +0.000 O 
BRANCH   21   20
ATOM    106  H21 UNL A   1      11.006  56.556  11.281  1.00  0.00    +0.000 H 
ATOM     20  N2  UNL A   1      10.839  56.341  10.335  1.00  0.00    +0.000 N 
BRANCH   20   19
ATOM    105  H20 UNL A   1       9.544  55.411   9.047  1.00  0.00    +0.000 H 
ATOM     19  C15 UNL A   1       9.754  55.403  10.096  1.00  0.00    +0.000 C 
ATOM    104  H19 UNL A   1       8.904  55.708  10.671  1.00  0.00    +0.000 H 
BRANCH   19   18
ATOM     18  C14 UNL A   1      10.116  53.970  10.483  1.00  0.00    +0.000 C 
ATOM    102  H17 UNL A   1      10.919  54.011  11.188  1.00  0.00    +0.000 H 
ATOM    103  H18 UNL A   1       9.220  53.536  10.875  1.00  0.00    +0.000 H 
BRANCH   18   17
ATOM     17  C13 UNL A   1      10.550  53.070   9.324  1.00  0.00    +0.000 C 
ATOM    100  H15 UNL A   1       9.686  52.855   8.731  1.00  0.00    +0.000 H 
ATOM    101  H16 UNL A   1      11.309  53.613   8.799  1.00  0.00    +0.000 H 
BRANCH   17   16
ATOM     98  H13 UNL A   1      10.721  51.408  10.630  1.00  0.00    +0.000 H 
ATOM     99  H14 UNL A   1      11.043  51.079   8.897  1.00  0.00    +0.000 H 
ATOM     16  C12 UNL A   1      11.190  51.738   9.727  1.00  0.00    +0.000 C 
BRANCH   16   15
ATOM     97  H12 UNL A   1      12.840  52.051  10.994  1.00  0.00    +0.000 H 
ATOM     15  C11 UNL A   1      12.705  51.777   9.969  1.00  0.00    +0.000 C 
ATOM     96  H11 UNL A   1      13.134  52.479   9.285  1.00  0.00    +0.000 H 
BRANCH   15   14
ATOM     94  H9  UNL A   1      12.716  49.646   9.958  1.00  0.00    +0.000 H 
ATOM     14  C10 UNL A   1      13.417  50.436   9.784  1.00  0.00    +0.000 C 
ATOM     95  H10 UNL A   1      13.799  50.399   8.784  1.00  0.00    +0.000 H 
BRANCH   14   13
ATOM     13  N1  UNL A   1      14.530  50.285  10.697  1.00  0.00    +0.000 N 
ATOM     93  H8  UNL A   1      14.531  49.527  11.325  1.00  0.00    +0.000 H 
BRANCH   13    2
ATOM      1  O1  UNL A   1      15.829  51.922  11.646  1.00  0.00    +0.000 O 
ATOM      2  C1  UNL A   1      15.579  51.164  10.716  1.00  0.00    +0.000 C 
BRANCH    2    3
ATOM      3  C2  UNL A   1      16.479  51.141   9.535  1.00  0.00    +0.000 C 
ATOM     86  H1  UNL A   1      17.456  50.848   9.694  1.00  0.00    +0.000 H 
BRANCH    3    4
ATOM      4  C3  UNL A   1      16.135  51.467   8.279  1.00  0.00    +0.000 C 
ATOM     87  H2  UNL A   1      15.674  52.374   8.109  1.00  0.00    +0.000 H 
BRANCH    4    5
ATOM      5  C4  UNL A   1      16.388  50.578   7.135  1.00  0.00    +0.000 C 
ATOM      6  C5  UNL A   1      16.120  49.198   7.184  1.00  0.00    +0.000 C 
ATOM      7  C6  UNL A   1      16.396  48.374   6.086  1.00  0.00    +0.000 C 
ATOM      8  C7  UNL A   1      16.928  48.937   4.934  1.00  0.00    +0.000 C 
ATOM     10  C8  UNL A   1      17.169  50.306   4.869  1.00  0.00    +0.000 C 
ATOM     12  C9  UNL A   1      16.897  51.131   5.953  1.00  0.00    +0.000 C 
ATOM     88  H3  UNL A   1      15.715  48.788   8.039  1.00  0.00    +0.000 H 
ATOM     89  H4  UNL A   1      16.205  47.361   6.132  1.00  0.00    +0.000 H 
ATOM     92  H7  UNL A   1      17.069  52.147   5.888  1.00  0.00    +0.000 H 
BRANCH    8    9
ATOM      9  O2  UNL A   1      17.237  48.184   3.836  1.00  0.00    +0.000 O 
ATOM     90  H5  UNL A   1      17.980  47.613   3.853  1.00  0.00    +0.000 H 
ENDBRANCH    8    9
BRANCH   10   11
ATOM     11  O3  UNL A   1      17.688  50.853   3.732  1.00  0.00    +0.000 O 
ATOM     91  H6  UNL A   1      17.817  50.320   2.971  1.00  0.00    +0.000 H 
ENDBRANCH   10   11
ENDBRANCH    4    5
ENDBRANCH    3    4
ENDBRANCH    2    3
ENDBRANCH   13    2
ENDBRANCH   14   13
ENDBRANCH   15   14
ENDBRANCH   16   15
ENDBRANCH   17   16
ENDBRANCH   18   17
ENDBRANCH   19   18
ENDBRANCH   20   19
ENDBRANCH   21   20
ENDBRANCH   23   21
ENDBRANCH   27   26
BRANCH   31   32
ATOM     33  C26 UNL A   1      18.893  55.661   1.254  1.00  0.00    +0.000 C 
ATOM     34  F1  UNL A   1      19.491  54.914   2.195  1.00  0.00    +0.000 F 
ATOM     35  C27 UNL A   1      19.571  56.766   0.745  1.00  0.00    +0.000 C 
ATOM     36  F2  UNL A   1      20.793  57.070   1.204  1.00  0.00    +0.000 F 
ATOM     37  C28 UNL A   1      18.977  57.561  -0.223  1.00  0.00    +0.000 C 
ATOM     38  F3  UNL A   1      19.631  58.623  -0.714  1.00  0.00    +0.000 F 
ATOM     39  C29 UNL A   1      17.700  57.261  -0.676  1.00  0.00    +0.000 C 
ATOM     40  F4  UNL A   1      17.130  58.023  -1.620  1.00  0.00    +0.000 F 
ATOM     41  C30 UNL A   1      17.009  56.175  -0.146  1.00  0.00    +0.000 C 
ATOM     42  F5  UNL A   1      15.769  55.921  -0.592  1.00  0.00    +0.000 F 
ATOM     32  C25 UNL A   1      17.590  55.355   0.832  1.00  0.00    +0.000 C 
ENDBRANCH   31   32
BRANCH   48   49
ATOM     49  C36 UNL A   1      16.447  48.422  -0.811  1.00  0.00    +0.000 C 
ATOM     50  C37 UNL A   1      15.643  48.173  -1.932  1.00  0.00    +0.000 C 
ATOM     51  F6  UNL A   1      14.449  48.775  -2.053  1.00  0.00    +0.000 F 
ATOM     52  C38 UNL A   1      16.046  47.276  -2.918  1.00  0.00    +0.000 C 
ATOM     53  F7  UNL A   1      15.243  47.023  -3.960  1.00  0.00    +0.000 F 
ATOM     54  C39 UNL A   1      17.271  46.634  -2.815  1.00  0.00    +0.000 C 
ATOM     55  F8  UNL A   1      17.661  45.776  -3.768  1.00  0.00    +0.000 F 
ATOM     56  C40 UNL A   1      18.089  46.876  -1.721  1.00  0.00    +0.000 C 
ATOM     57  F9  UNL A   1      19.277  46.264  -1.626  1.00  0.00    +0.000 F 
ATOM     58  C41 UNL A   1      17.677  47.753  -0.721  1.00  0.00    +0.000 C 
ATOM     59  F10 UNL A   1      18.484  47.959   0.329  1.00  0.00    +0.000 F 
ENDBRANCH   48   49
BRANCH   63   64
ATOM     65  C46 UNL A   1      12.710  46.963   5.574  1.00  0.00    +0.000 C 
ATOM     66  F11 UNL A   1      14.007  46.998   5.908  1.00  0.00    +0.000 F 
ATOM     67  C47 UNL A   1      11.902  45.958   6.102  1.00  0.00    +0.000 C 
ATOM     68  F12 UNL A   1      12.429  45.043   6.928  1.00  0.00    +0.000 F 
ATOM     69  C48 UNL A   1      10.557  45.897   5.769  1.00  0.00    +0.000 C 
ATOM     70  F13 UNL A   1       9.779  44.937   6.287  1.00  0.00    +0.000 F 
ATOM     71  C49 UNL A   1      10.021  46.832   4.896  1.00  0.00    +0.000 C 
ATOM     72  F14 UNL A   1       8.719  46.786   4.583  1.00  0.00    +0.000 F 
ATOM     73  C50 UNL A   1      10.832  47.823   4.348  1.00  0.00    +0.000 C 
ATOM     74  F15 UNL A   1      10.288  48.713   3.506  1.00  0.00    +0.000 F 
ATOM     64  C45 UNL A   1      12.190  47.913   4.684  1.00  0.00    +0.000 C 
ENDBRANCH   63   64
TORSDOF 19
ENDMDL
MODEL 4
REMARK VINA RESULT:      -8.1     39.691     44.002
ROOT
ATOM     27  C21 UNL A   1      41.442  26.347  27.895  1.00  0.00    +0.000 C 
ATOM     28  C22 UNL A   1      40.780  27.471  28.637  1.00  0.00    +0.000 C 
ATOM     29  N3  UNL A   1      41.261  28.644  28.964  1.00  0.00    +0.000 N 
ATOM     30  C23 UNL A   1      40.228  29.311  29.607  1.00  0.00    +0.000 C 
ATOM     31  C24 UNL A   1      40.244  30.536  30.186  1.00  0.00    +0.000 C 
ATOM     43  C31 UNL A   1      41.392  31.403  30.224  1.00  0.00    +0.000 C 
ATOM     44  C32 UNL A   1      41.527  32.633  30.845  1.00  0.00    +0.000 C 
ATOM     45  C33 UNL A   1      42.805  33.129  30.564  1.00  0.00    +0.000 C 
ATOM     46  C34 UNL A   1      43.483  32.189  29.804  1.00  0.00    +0.000 C 
ATOM     47  N4  UNL A   1      42.605  31.135  29.604  1.00  0.00    +0.000 N 
ATOM     48  C35 UNL A   1      44.829  32.246  29.294  1.00  0.00    +0.000 C 
ATOM     60  C42 UNL A   1      45.438  31.256  28.597  1.00  0.00    +0.000 C 
ATOM     61  N5  UNL A   1      44.931  30.024  28.211  1.00  0.00    +0.000 N 
ATOM     62  C43 UNL A   1      45.892  29.432  27.544  1.00  0.00    +0.000 C 
ATOM     63  C44 UNL A   1      45.899  28.073  26.903  1.00  0.00    +0.000 C 
ATOM     75  C51 UNL A   1      44.820  27.277  27.026  1.00  0.00    +0.000 C 
ATOM     76  C52 UNL A   1      44.690  25.938  26.459  1.00  0.00    +0.000 C 
ATOM     77  C53 UNL A   1      43.457  25.473  26.712  1.00  0.00    +0.000 C 
ATOM     78  C54 UNL A   1      42.720  26.470  27.490  1.00  0.00    +0.000 C 
ATOM     79  N6  UNL A   1      43.619  27.495  27.655  1.00  0.00    +0.000 N 
ATOM     80  C55 UNL A   1      47.118  30.231  27.419  1.00  0.00    +0.000 C 
ATOM     81  C56 UNL A   1      46.799  31.320  28.104  1.00  0.00    +0.000 C 
ATOM     82  C57 UNL A   1      39.078  28.432  29.579  1.00  0.00    +0.000 C 
ATOM     83  C58 UNL A   1      39.383  27.258  29.045  1.00  0.00    +0.000 C 
ATOM    109  H24 UNL A   1      40.808  33.103  31.417  1.00  0.00    +0.000 H 
ATOM    110  H25 UNL A   1      43.180  34.040  30.871  1.00  0.00    +0.000 H 
ATOM    111  H26 UNL A   1      42.811  30.317  29.098  1.00  0.00    +0.000 H 
ATOM    112  H27 UNL A   1      45.429  25.431  25.947  1.00  0.00    +0.000 H 
ATOM    113  H28 UNL A   1      43.088  24.560  26.406  1.00  0.00    +0.000 H 
ATOM    114  H29 UNL A   1      43.421  28.308  28.174  1.00  0.00    +0.000 H 
ATOM    115  H30 UNL A   1      47.997  30.004  26.929  1.00  0.00    +0.000 H 
ATOM    116  H31 UNL A   1      47.439  32.113  28.266  1.00  0.00    +0.000 H 
ATOM    117  H32 UNL A   1      38.141  28.686  29.931  1.00  0.00    +0.000 H 
ATOM    118  H33 UNL A   1      38.796  26.416  28.941  1.00  0.00    +0.000 H 
ENDROOT
BRANCH   27   26
ATOM    107  H22 UNL A   1      40.759  21.778  27.747  1.00  0.00    +0.000 H 
ATOM    108  H23 UNL A   1      41.884  23.760  28.586  1.00  0.00    +0.000 H 
ATOM     84  C59 UNL A   1      39.539  25.251  26.706  1.00  0.00    +0.000 C 
ATOM     85  C60 UNL A   1      38.848  24.117  26.287  1.00  0.00    +0.000 C 
ATOM    120  H35 UNL A   1      37.976  24.213  25.744  1.00  0.00    +0.000 H 
ATOM     23  C17 UNL A   1      39.339  22.847  26.606  1.00  0.00    +0.000 C 
ATOM     24  C18 UNL A   1      40.435  22.715  27.463  1.00  0.00    +0.000 C 
ATOM     25  C19 UNL A   1      41.091  23.855  27.933  1.00  0.00    +0.000 C 
ATOM    119  H34 UNL A   1      39.212  26.187  26.416  1.00  0.00    +0.000 H 
ATOM     26  C20 UNL A   1      40.675  25.131  27.521  1.00  0.00    +0.000 C 
BRANCH   23   21
ATOM     21  C16 UNL A   1      38.718  21.623  26.053  1.00  0.00    +0.000 C 
ATOM     22  O4  UNL A   1      39.378  20.591  25.974  1.00  0.00    +0.000 O 
BRANCH   21   20
ATOM    106  H21 UNL A   1      36.740  21.814  26.291  1.00  0.00    +0.000 H 
ATOM     20  N2  UNL A   1      37.421  21.646  25.600  1.00  0.00    +0.000 N 
BRANCH   20   19
ATOM    105  H20 UNL A   1      36.333  20.554  24.249  1.00  0.00    +0.000 H 
ATOM     19  C15 UNL A   1      36.903  21.459  24.253  1.00  0.00    +0.000 C 
ATOM    104  H19 UNL A   1      37.728  21.410  23.573  1.00  0.00    +0.000 H 
BRANCH   19   18
ATOM     18  C14 UNL A   1      35.976  22.590  23.815  1.00  0.00    +0.000 C 
ATOM    102  H17 UNL A   1      36.289  22.919  22.847  1.00  0.00    +0.000 H 
ATOM    103  H18 UNL A   1      34.986  22.182  23.832  1.00  0.00    +0.000 H 
BRANCH   18   17
ATOM     17  C13 UNL A   1      35.947  23.809  24.741  1.00  0.00    +0.000 C 
ATOM    100  H15 UNL A   1      36.683  23.661  25.503  1.00  0.00    +0.000 H 
ATOM    101  H16 UNL A   1      36.139  24.656  24.116  1.00  0.00    +0.000 H 
BRANCH   17   16
ATOM     98  H13 UNL A   1      34.562  25.132  25.652  1.00  0.00    +0.000 H 
ATOM     99  H14 UNL A   1      33.852  23.762  24.738  1.00  0.00    +0.000 H 
ATOM     16  C12 UNL A   1      34.605  24.087  25.425  1.00  0.00    +0.000 C 
BRANCH   16   15
ATOM     97  H12 UNL A   1      34.030  24.031  27.448  1.00  0.00    +0.000 H 
ATOM     15  C11 UNL A   1      34.350  23.311  26.724  1.00  0.00    +0.000 C 
ATOM     96  H11 UNL A   1      35.257  22.813  26.999  1.00  0.00    +0.000 H 
BRANCH   15   14
ATOM     94  H9  UNL A   1      32.722  22.229  27.572  1.00  0.00    +0.000 H 
ATOM     14  C10 UNL A   1      33.240  22.263  26.636  1.00  0.00    +0.000 C 
ATOM     95  H10 UNL A   1      32.580  22.545  25.841  1.00  0.00    +0.000 H 
BRANCH   14   13
ATOM     13  N1  UNL A   1      33.763  20.946  26.342  1.00  0.00    +0.000 N 
ATOM     93  H8  UNL A   1      34.340  20.503  27.005  1.00  0.00    +0.000 H 
BRANCH   13    2
ATOM      1  O1  UNL A   1      34.056  19.285  24.785  1.00  0.00    +0.000 O 
ATOM      2  C1  UNL A   1      33.482  20.297  25.170  1.00  0.00    +0.000 C 
BRANCH    2    3
ATOM      3  C2  UNL A   1      32.373  20.857  24.356  1.00  0.00    +0.000 C 
ATOM     86  H1  UNL A   1      31.428  20.837  24.770  1.00  0.00    +0.000 H 
BRANCH    3    4
ATOM      4  C3  UNL A   1      32.492  21.388  23.128  1.00  0.00    +0.000 C 
ATOM     87  H2  UNL A   1      32.755  20.773  22.344  1.00  0.00    +0.000 H 
BRANCH    4    5
ATOM      5  C4  UNL A   1      32.262  22.816  22.860  1.00  0.00    +0.000 C 
ATOM      6  C5  UNL A   1      33.096  23.563  22.009  1.00  0.00    +0.000 C 
ATOM      7  C6  UNL A   1      32.864  24.927  21.794  1.00  0.00    +0.000 C 
ATOM      8  C7  UNL A   1      31.788  25.538  22.422  1.00  0.00    +0.000 C 
ATOM     10  C8  UNL A   1      30.942  24.798  23.243  1.00  0.00    +0.000 C 
ATOM     12  C9  UNL A   1      31.164  23.445  23.461  1.00  0.00    +0.000 C 
ATOM     88  H3  UNL A   1      33.888  23.101  21.537  1.00  0.00    +0.000 H 
ATOM     89  H4  UNL A   1      33.485  25.471  21.175  1.00  0.00    +0.000 H 
ATOM     92  H7  UNL A   1      30.523  22.904  24.063  1.00  0.00    +0.000 H 
BRANCH    8    9
ATOM      9  O2  UNL A   1      31.520  26.870  22.269  1.00  0.00    +0.000 O 
ATOM     90  H5  UNL A   1      30.999  27.320  22.904  1.00  0.00    +0.000 H 
ENDBRANCH    8    9
BRANCH   10   11
ATOM     11  O3  UNL A   1      29.883  25.405  23.855  1.00  0.00    +0.000 O 
ATOM     91  H6  UNL A   1      29.263  25.890  23.346  1.00  0.00    +0.000 H 
ENDBRANCH   10   11
ENDBRANCH    4    5
ENDBRANCH    3    4
ENDBRANCH    2    3
ENDBRANCH   13    2
ENDBRANCH   14   13
ENDBRANCH   15   14
ENDBRANCH   16   15
ENDBRANCH   17   16
ENDBRANCH   18   17
ENDBRANCH   19   18
ENDBRANCH   20   19
ENDBRANCH   21   20
ENDBRANCH   23   21
ENDBRANCH   27   26
BRANCH   31   32
ATOM     33  C26 UNL A   1      38.749  30.864  32.208  1.00  0.00    +0.000 C 
ATOM     34  F1  UNL A   1      39.669  30.266  32.982  1.00  0.00    +0.000 F 
ATOM     35  C27 UNL A   1      37.559  31.291  32.791  1.00  0.00    +0.000 C 
ATOM     36  F2  UNL A   1      37.347  31.093  34.100  1.00  0.00    +0.000 F 
ATOM     37  C28 UNL A   1      36.587  31.905  32.017  1.00  0.00    +0.000 C 
ATOM     38  F3  UNL A   1      35.442  32.318  32.579  1.00  0.00    +0.000 F 
ATOM     39  C29 UNL A   1      36.797  32.084  30.657  1.00  0.00    +0.000 C 
ATOM     40  F4  UNL A   1      35.862  32.688  29.910  1.00  0.00    +0.000 F 
ATOM     41  C30 UNL A   1      37.974  31.631  30.066  1.00  0.00    +0.000 C 
ATOM     42  F5  UNL A   1      38.139  31.801  28.746  1.00  0.00    +0.000 F 
ATOM     32  C25 UNL A   1      38.972  31.008  30.830  1.00  0.00    +0.000 C 
ENDBRANCH   31   32
BRANCH   48   49
ATOM     49  C36 UNL A   1      45.631  33.485  29.567  1.00  0.00    +0.000 C 
ATOM     50  C37 UNL A   1      45.596  34.584  28.697  1.00  0.00    +0.000 C 
ATOM     51  F6  UNL A   1      44.878  34.526  27.565  1.00  0.00    +0.000 F 
ATOM     52  C38 UNL A   1      46.329  35.736  28.971  1.00  0.00    +0.000 C 
ATOM     53  F7  UNL A   1      46.313  36.760  28.106  1.00  0.00    +0.000 F 
ATOM     54  C39 UNL A   1      47.085  35.822  30.130  1.00  0.00    +0.000 C 
ATOM     55  F8  UNL A   1      47.784  36.933  30.394  1.00  0.00    +0.000 F 
ATOM     56  C40 UNL A   1      47.123  34.751  31.011  1.00  0.00    +0.000 C 
ATOM     57  F9  UNL A   1      47.846  34.836  32.136  1.00  0.00    +0.000 F 
ATOM     58  C41 UNL A   1      46.413  33.587  30.728  1.00  0.00    +0.000 C 
ATOM     59  F10 UNL A   1      46.477  32.565  31.593  1.00  0.00    +0.000 F 
ENDBRANCH   48   49
BRANCH   63   64
ATOM     65  C46 UNL A   1      47.160  27.739  24.758  1.00  0.00    +0.000 C 
ATOM     66  F11 UNL A   1      46.137  28.285  24.086  1.00  0.00    +0.000 F 
ATOM     67  C47 UNL A   1      48.279  27.306  24.051  1.00  0.00    +0.000 C 
ATOM     68  F12 UNL A   1      48.318  27.437  22.717  1.00  0.00    +0.000 F 
ATOM     69  C48 UNL A   1      49.350  26.735  24.722  1.00  0.00    +0.000 C 
ATOM     70  F13 UNL A   1      50.431  26.330  24.042  1.00  0.00    +0.000 F 
ATOM     71  C49 UNL A   1      49.297  26.580  26.100  1.00  0.00    +0.000 C 
ATOM     72  F14 UNL A   1      50.335  26.042  26.753  1.00  0.00    +0.000 F 
ATOM     73  C50 UNL A   1      48.168  26.990  26.805  1.00  0.00    +0.000 C 
ATOM     74  F15 UNL A   1      48.142  26.828  28.136  1.00  0.00    +0.000 F 
ATOM     64  C45 UNL A   1      47.081  27.586  26.149  1.00  0.00    +0.000 C 
ENDBRANCH   63   64
TORSDOF 19
ENDMDL
MODEL 5
REMARK VINA RESULT:      -8.1     39.758     44.079
ROOT
ATOM     27  C21 UNL A   1      41.454  26.256  27.826  1.00  0.00    +0.000 C 
ATOM     28  C22 UNL A   1      40.753  27.375  28.541  1.00  0.00    +0.000 C 
ATOM     29  N3  UNL A   1      41.198  28.566  28.852  1.00  0.00    +0.000 N 
ATOM     30  C23 UNL A   1      40.139  29.215  29.472  1.00  0.00    +0.000 C 
ATOM     31  C24 UNL A   1      40.115  30.449  30.030  1.00  0.00    +0.000 C 
ATOM     43  C31 UNL A   1      41.238  31.349  30.064  1.00  0.00    +0.000 C 
ATOM     44  C32 UNL A   1      41.331  32.593  30.665  1.00  0.00    +0.000 C 
ATOM     45  C33 UNL A   1      42.598  33.119  30.389  1.00  0.00    +0.000 C 
ATOM     46  C34 UNL A   1      43.311  32.186  29.653  1.00  0.00    +0.000 C 
ATOM     47  N4  UNL A   1      42.464  31.104  29.462  1.00  0.00    +0.000 N 
ATOM     48  C35 UNL A   1      44.661  32.271  29.156  1.00  0.00    +0.000 C 
ATOM     60  C42 UNL A   1      45.304  31.288  28.483  1.00  0.00    +0.000 C 
ATOM     61  N5  UNL A   1      44.836  30.034  28.114  1.00  0.00    +0.000 N 
ATOM     62  C43 UNL A   1      45.820  29.458  27.469  1.00  0.00    +0.000 C 
ATOM     63  C44 UNL A   1      45.873  28.089  26.852  1.00  0.00    +0.000 C 
ATOM     75  C51 UNL A   1      44.815  27.265  26.977  1.00  0.00    +0.000 C 
ATOM     76  C52 UNL A   1      44.729  25.914  26.433  1.00  0.00    +0.000 C 
ATOM     77  C53 UNL A   1      43.506  25.419  26.680  1.00  0.00    +0.000 C 
ATOM     78  C54 UNL A   1      42.734  26.408  27.433  1.00  0.00    +0.000 C 
ATOM     79  N6  UNL A   1      43.601  27.461  27.589  1.00  0.00    +0.000 N 
ATOM     80  C55 UNL A   1      47.025  30.289  27.343  1.00  0.00    +0.000 C 
ATOM     81  C56 UNL A   1      46.669  31.381  28.004  1.00  0.00    +0.000 C 
ATOM     82  C57 UNL A   1      39.015  28.303  29.447  1.00  0.00    +0.000 C 
ATOM     83  C58 UNL A   1      39.358  27.129  28.938  1.00  0.00    +0.000 C 
ATOM    109  H24 UNL A   1      40.594  33.053  31.221  1.00  0.00    +0.000 H 
ATOM    110  H25 UNL A   1      42.944  34.046  30.684  1.00  0.00    +0.000 H 
ATOM    111  H26 UNL A   1      42.699  30.283  28.972  1.00  0.00    +0.000 H 
ATOM    112  H27 UNL A   1      45.487  25.419  25.937  1.00  0.00    +0.000 H 
ATOM    113  H28 UNL A   1      43.166  24.491  26.387  1.00  0.00    +0.000 H 
ATOM    114  H29 UNL A   1      43.375  28.277  28.091  1.00  0.00    +0.000 H 
ATOM    115  H30 UNL A   1      47.916  30.078  26.865  1.00  0.00    +0.000 H 
ATOM    116  H31 UNL A   1      47.284  32.194  28.158  1.00  0.00    +0.000 H 
ATOM    117  H32 UNL A   1      38.067  28.537  29.784  1.00  0.00    +0.000 H 
ATOM    118  H33 UNL A   1      38.796  26.270  28.842  1.00  0.00    +0.000 H 
ENDROOT
BRANCH   27   26
ATOM    107  H22 UNL A   1      40.928  21.666  27.706  1.00  0.00    +0.000 H 
ATOM    108  H23 UNL A   1      41.993  23.689  28.523  1.00  0.00    +0.000 H 
ATOM     84  C59 UNL A   1      39.578  25.091  26.662  1.00  0.00    +0.000 C 
ATOM     85  C60 UNL A   1      38.922  23.931  26.256  1.00  0.00    +0.000 C 
ATOM    120  H35 UNL A   1      38.042  23.994  25.721  1.00  0.00    +0.000 H 
ATOM     23  C17 UNL A   1      39.459  22.681  26.575  1.00  0.00    +0.000 C 
ATOM     24  C18 UNL A   1      40.569  22.591  27.421  1.00  0.00    +0.000 C 
ATOM     25  C19 UNL A   1      41.190  23.754  27.879  1.00  0.00    +0.000 C 
ATOM    119  H34 UNL A   1      39.216  26.013  26.371  1.00  0.00    +0.000 H 
ATOM     26  C20 UNL A   1      40.726  25.014  27.466  1.00  0.00    +0.000 C 
BRANCH   23   21
ATOM     21  C16 UNL A   1      38.875  21.434  26.034  1.00  0.00    +0.000 C 
ATOM     22  O4  UNL A   1      39.540  20.401  26.037  1.00  0.00    +0.000 O 
BRANCH   21   20
ATOM    106  H21 UNL A   1      36.882  21.297  26.151  1.00  0.00    +0.000 H 
ATOM     20  N2  UNL A   1      37.609  21.434  25.501  1.00  0.00    +0.000 N 
BRANCH   20   19
ATOM    105  H20 UNL A   1      36.392  20.907  23.938  1.00  0.00    +0.000 H 
ATOM     19  C15 UNL A   1      37.181  21.606  24.121  1.00  0.00    +0.000 C 
ATOM    104  H19 UNL A   1      38.019  21.434  23.479  1.00  0.00    +0.000 H 
BRANCH   19   18
ATOM     18  C14 UNL A   1      36.631  23.003  23.844  1.00  0.00    +0.000 C 
ATOM    102  H17 UNL A   1      36.670  23.561  24.755  1.00  0.00    +0.000 H 
ATOM    103  H18 UNL A   1      37.241  23.410  23.064  1.00  0.00    +0.000 H 
BRANCH   18   17
ATOM     17  C13 UNL A   1      35.193  23.049  23.323  1.00  0.00    +0.000 C 
ATOM    100  H15 UNL A   1      35.231  23.129  22.257  1.00  0.00    +0.000 H 
ATOM    101  H16 UNL A   1      34.726  22.152  23.672  1.00  0.00    +0.000 H 
BRANCH   17   16
ATOM     98  H13 UNL A   1      34.253  24.935  23.077  1.00  0.00    +0.000 H 
ATOM     99  H14 UNL A   1      33.400  23.766  24.137  1.00  0.00    +0.000 H 
ATOM     16  C12 UNL A   1      34.335  24.202  23.853  1.00  0.00    +0.000 C 
BRANCH   16   15
ATOM     97  H12 UNL A   1      35.633  25.576  24.777  1.00  0.00    +0.000 H 
ATOM     15  C11 UNL A   1      34.870  24.903  25.109  1.00  0.00    +0.000 C 
ATOM     96  H11 UNL A   1      35.232  24.153  25.781  1.00  0.00    +0.000 H 
BRANCH   15   14
ATOM     94  H9  UNL A   1      33.649  25.306  26.808  1.00  0.00    +0.000 H 
ATOM     14  C10 UNL A   1      33.840  25.752  25.855  1.00  0.00    +0.000 C 
ATOM     95  H10 UNL A   1      34.241  26.739  25.964  1.00  0.00    +0.000 H 
BRANCH   14   13
ATOM     13  N1  UNL A   1      32.593  25.852  25.126  1.00  0.00    +0.000 N 
ATOM     93  H8  UNL A   1      32.619  25.946  24.146  1.00  0.00    +0.000 H 
BRANCH   13    2
ATOM      1  O1  UNL A   1      30.800  26.806  26.194  1.00  0.00    +0.000 O 
ATOM      2  C1  UNL A   1      31.378  25.819  25.756  1.00  0.00    +0.000 C 
BRANCH    2    3
ATOM      3  C2  UNL A   1      30.725  24.489  25.860  1.00  0.00    +0.000 C 
ATOM     86  H1  UNL A   1      29.900  24.322  25.263  1.00  0.00    +0.000 H 
BRANCH    3    4
ATOM      4  C3  UNL A   1      31.114  23.484  26.661  1.00  0.00    +0.000 C 
ATOM     87  H2  UNL A   1      30.746  23.445  27.624  1.00  0.00    +0.000 H 
BRANCH    4    5
ATOM      5  C4  UNL A   1      32.047  22.437  26.218  1.00  0.00    +0.000 C 
ATOM      6  C5  UNL A   1      33.232  22.143  26.916  1.00  0.00    +0.000 C 
ATOM      7  C6  UNL A   1      34.112  21.157  26.454  1.00  0.00    +0.000 C 
ATOM      8  C7  UNL A   1      33.796  20.456  25.299  1.00  0.00    +0.000 C 
ATOM     10  C8  UNL A   1      32.611  20.722  24.619  1.00  0.00    +0.000 C 
ATOM     12  C9  UNL A   1      31.732  21.697  25.071  1.00  0.00    +0.000 C 
ATOM     88  H3  UNL A   1      33.456  22.661  27.780  1.00  0.00    +0.000 H 
ATOM     89  H4  UNL A   1      34.984  20.953  26.967  1.00  0.00    +0.000 H 
ATOM     92  H7  UNL A   1      30.851  21.877  24.564  1.00  0.00    +0.000 H 
BRANCH    8    9
ATOM      9  O2  UNL A   1      34.622  19.495  24.786  1.00  0.00    +0.000 O 
ATOM     90  H5  UNL A   1      34.868  19.522  23.882  1.00  0.00    +0.000 H 
ENDBRANCH    8    9
BRANCH   10   11
ATOM     11  O3  UNL A   1      32.304  20.025  23.486  1.00  0.00    +0.000 O 
ATOM     91  H6  UNL A   1      32.912  19.400  23.141  1.00  0.00    +0.000 H 
ENDBRANCH   10   11
ENDBRANCH    4    5
ENDBRANCH    3    4
ENDBRANCH    2    3
ENDBRANCH   13    2
ENDBRANCH   14   13
ENDBRANCH   15   14
ENDBRANCH   16   15
ENDBRANCH   17   16
ENDBRANCH   18   17
ENDBRANCH   19   18
ENDBRANCH   20   19
ENDBRANCH   21   20
ENDBRANCH   23   21
ENDBRANCH   27   26
BRANCH   31   32
ATOM     33  C26 UNL A   1      38.600  30.797  32.033  1.00  0.00    +0.000 C 
ATOM     34  F1  UNL A   1      39.538  30.263  32.831  1.00  0.00    +0.000 F 
ATOM     35  C27 UNL A   1      37.392  31.200  32.596  1.00  0.00    +0.000 C 
ATOM     36  F2  UNL A   1      37.181  31.043  33.910  1.00  0.00    +0.000 F 
ATOM     37  C28 UNL A   1      36.400  31.747  31.796  1.00  0.00    +0.000 C 
ATOM     38  F3  UNL A   1      35.238  32.137  32.338  1.00  0.00    +0.000 F 
ATOM     39  C29 UNL A   1      36.610  31.883  30.431  1.00  0.00    +0.000 C 
ATOM     40  F4  UNL A   1      35.656  32.423  29.659  1.00  0.00    +0.000 F 
ATOM     41  C30 UNL A   1      37.806  31.453  29.862  1.00  0.00    +0.000 C 
ATOM     42  F5  UNL A   1      37.971  31.580  28.536  1.00  0.00    +0.000 F 
ATOM     32  C25 UNL A   1      38.823  30.898  30.651  1.00  0.00    +0.000 C 
ENDBRANCH   31   32
BRANCH   48   49
ATOM     49  C36 UNL A   1      45.424  33.537  29.416  1.00  0.00    +0.000 C 
ATOM     50  C37 UNL A   1      46.225  33.686  30.557  1.00  0.00    +0.000 C 
ATOM     51  F6  UNL A   1      46.282  32.709  31.474  1.00  0.00    +0.000 F 
ATOM     52  C38 UNL A   1      46.946  34.858  30.777  1.00  0.00    +0.000 C 
ATOM     53  F7  UNL A   1      47.673  34.995  31.895  1.00  0.00    +0.000 F 
ATOM     54  C39 UNL A   1      46.901  35.887  29.850  1.00  0.00    +0.000 C 
ATOM     55  F8  UNL A   1      47.599  37.011  30.060  1.00  0.00    +0.000 F 
ATOM     56  C40 UNL A   1      46.125  35.755  28.707  1.00  0.00    +0.000 C 
ATOM     57  F9  UNL A   1      46.089  36.746  27.805  1.00  0.00    +0.000 F 
ATOM     58  C41 UNL A   1      45.384  34.596  28.496  1.00  0.00    +0.000 C 
ATOM     59  F10 UNL A   1      44.635  34.501  27.388  1.00  0.00    +0.000 F 
ENDBRANCH   48   49
BRANCH   63   64
ATOM     65  C46 UNL A   1      48.140  27.013  26.799  1.00  0.00    +0.000 C 
ATOM     66  F11 UNL A   1      48.100  26.891  28.133  1.00  0.00    +0.000 F 
ATOM     67  C47 UNL A   1      49.260  26.551  26.112  1.00  0.00    +0.000 C 
ATOM     68  F12 UNL A   1      50.278  25.999  26.787  1.00  0.00    +0.000 F 
ATOM     69  C48 UNL A   1      49.329  26.668  24.731  1.00  0.00    +0.000 C 
ATOM     70  F13 UNL A   1      50.401  26.213  24.070  1.00  0.00    +0.000 F 
ATOM     71  C49 UNL A   1      48.284  27.261  24.038  1.00  0.00    +0.000 C 
ATOM     72  F14 UNL A   1      48.339  27.363  22.703  1.00  0.00    +0.000 F 
ATOM     73  C50 UNL A   1      47.174  27.746  24.726  1.00  0.00    +0.000 C 
ATOM     74  F15 UNL A   1      46.179  28.315  24.031  1.00  0.00    +0.000 F 
ATOM     64  C45 UNL A   1      47.076  27.622  26.119  1.00  0.00    +0.000 C 
ENDBRANCH   63   64
TORSDOF 19
ENDMDL
MODEL 6
REMARK VINA RESULT:      -8.0     44.790     47.612
ROOT
ATOM     27  C21 UNL A   1      21.503  38.158  49.082  1.00  0.00    +0.000 C 
ATOM     28  C22 UNL A   1      22.063  37.021  48.278  1.00  0.00    +0.000 C 
ATOM     29  N3  UNL A   1      23.230  36.915  47.694  1.00  0.00    +0.000 N 
ATOM     30  C23 UNL A   1      23.252  35.653  47.118  1.00  0.00    +0.000 C 
ATOM     31  C24 UNL A   1      24.217  35.090  46.352  1.00  0.00    +0.000 C 
ATOM     43  C31 UNL A   1      25.453  35.736  45.995  1.00  0.00    +0.000 C 
ATOM     44  C32 UNL A   1      26.462  35.275  45.169  1.00  0.00    +0.000 C 
ATOM     45  C33 UNL A   1      27.492  36.222  45.163  1.00  0.00    +0.000 C 
ATOM     46  C34 UNL A   1      27.107  37.295  45.952  1.00  0.00    +0.000 C 
ATOM     47  N4  UNL A   1      25.853  36.983  46.455  1.00  0.00    +0.000 N 
ATOM     48  C35 UNL A   1      27.826  38.512  46.230  1.00  0.00    +0.000 C 
ATOM     60  C42 UNL A   1      27.354  39.539  46.977  1.00  0.00    +0.000 C 
ATOM     61  N5  UNL A   1      26.136  39.652  47.633  1.00  0.00    +0.000 N 
ATOM     62  C43 UNL A   1      26.155  40.818  48.230  1.00  0.00    +0.000 C 
ATOM     63  C44 UNL A   1      25.094  41.465  49.075  1.00  0.00    +0.000 C 
ATOM     75  C51 UNL A   1      23.916  40.838  49.253  1.00  0.00    +0.000 C 
ATOM     76  C52 UNL A   1      22.800  41.348  50.044  1.00  0.00    +0.000 C 
ATOM     77  C53 UNL A   1      21.822  40.429  50.065  1.00  0.00    +0.000 C 
ATOM     78  C54 UNL A   1      22.231  39.278  49.258  1.00  0.00    +0.000 C 
ATOM     79  N6  UNL A   1      23.475  39.623  48.791  1.00  0.00    +0.000 N 
ATOM     80  C55 UNL A   1      27.398  41.576  48.031  1.00  0.00    +0.000 C 
ATOM     81  C56 UNL A   1      28.082  40.765  47.235  1.00  0.00    +0.000 C 
ATOM     82  C57 UNL A   1      22.002  35.009  47.468  1.00  0.00    +0.000 C 
ATOM     83  C58 UNL A   1      21.206  35.835  48.133  1.00  0.00    +0.000 C 
ATOM    109  H24 UNL A   1      26.457  34.385  44.646  1.00  0.00    +0.000 H 
ATOM    110  H25 UNL A   1      28.388  36.138  44.657  1.00  0.00    +0.000 H 
ATOM    111  H26 UNL A   1      25.324  37.562  47.050  1.00  0.00    +0.000 H 
ATOM    112  H27 UNL A   1      22.769  42.268  50.511  1.00  0.00    +0.000 H 
ATOM    113  H28 UNL A   1      20.927  40.519  50.569  1.00  0.00    +0.000 H 
ATOM    114  H29 UNL A   1      24.000  39.053  48.183  1.00  0.00    +0.000 H 
ATOM    115  H30 UNL A   1      27.668  42.497  48.410  1.00  0.00    +0.000 H 
ATOM    116  H31 UNL A   1      29.014  40.980  46.849  1.00  0.00    +0.000 H 
ATOM    117  H32 UNL A   1      21.763  34.034  47.229  1.00  0.00    +0.000 H 
ATOM    118  H33 UNL A   1      20.240  35.684  48.462  1.00  0.00    +0.000 H 
ENDROOT
BRANCH   27   26
ATOM    107  H22 UNL A   1      16.950  38.865  49.439  1.00  0.00    +0.000 H 
ATOM    108  H23 UNL A   1      19.035  38.856  48.195  1.00  0.00    +0.000 H 
ATOM     84  C59 UNL A   1      20.127  37.467  51.048  1.00  0.00    +0.000 C 
ATOM     85  C60 UNL A   1      18.915  37.403  51.731  1.00  0.00    +0.000 C 
ATOM    120  H35 UNL A   1      18.861  36.929  52.646  1.00  0.00    +0.000 H 
ATOM     23  C17 UNL A   1      17.771  37.981  51.173  1.00  0.00    +0.000 C 
ATOM     24  C18 UNL A   1      17.809  38.494  49.873  1.00  0.00    +0.000 C 
ATOM     25  C19 UNL A   1      19.012  38.502  49.164  1.00  0.00    +0.000 C 
ATOM    119  H34 UNL A   1      20.985  37.098  51.489  1.00  0.00    +0.000 H 
ATOM     26  C20 UNL A   1      20.190  38.029  49.764  1.00  0.00    +0.000 C 
BRANCH   23   21
ATOM     21  C16 UNL A   1      16.505  38.065  51.934  1.00  0.00    +0.000 C 
ATOM     22  O4  UNL A   1      16.492  37.765  53.125  1.00  0.00    +0.000 O 
BRANCH   21   20
ATOM    106  H21 UNL A   1      15.313  39.384  51.016  1.00  0.00    +0.000 H 
ATOM     20  N2  UNL A   1      15.343  38.445  51.309  1.00  0.00    +0.000 N 
BRANCH   20   19
ATOM    105  H20 UNL A   1      13.301  38.264  51.279  1.00  0.00    +0.000 H 
ATOM     19  C15 UNL A   1      14.149  37.667  51.014  1.00  0.00    +0.000 C 
ATOM    104  H19 UNL A   1      14.184  36.758  51.578  1.00  0.00    +0.000 H 
BRANCH   19   18
ATOM     18  C14 UNL A   1      14.022  37.318  49.533  1.00  0.00    +0.000 C 
ATOM    102  H17 UNL A   1      13.071  36.852  49.383  1.00  0.00    +0.000 H 
ATOM    103  H18 UNL A   1      14.138  38.240  49.002  1.00  0.00    +0.000 H 
BRANCH   18   17
ATOM     17  C13 UNL A   1      15.099  36.377  48.988  1.00  0.00    +0.000 C 
ATOM    100  H15 UNL A   1      16.054  36.784  49.247  1.00  0.00    +0.000 H 
ATOM    101  H16 UNL A   1      14.904  35.421  49.428  1.00  0.00    +0.000 H 
BRANCH   17   16
ATOM     98  H13 UNL A   1      15.223  35.109  47.292  1.00  0.00    +0.000 H 
ATOM     99  H14 UNL A   1      14.130  36.523  47.136  1.00  0.00    +0.000 H 
ATOM     16  C12 UNL A   1      15.076  36.154  47.473  1.00  0.00    +0.000 C 
BRANCH   16   15
ATOM     97  H12 UNL A   1      16.190  37.901  47.107  1.00  0.00    +0.000 H 
ATOM     15  C11 UNL A   1      16.135  36.924  46.673  1.00  0.00    +0.000 C 
ATOM     96  H11 UNL A   1      15.833  36.937  45.646  1.00  0.00    +0.000 H 
BRANCH   15   14
ATOM     94  H9  UNL A   1      18.250  37.140  46.813  1.00  0.00    +0.000 H 
ATOM     14  C10 UNL A   1      17.545  36.338  46.747  1.00  0.00    +0.000 C 
ATOM     95  H10 UNL A   1      17.597  35.707  47.611  1.00  0.00    +0.000 H 
BRANCH   14   13
ATOM     13  N1  UNL A   1      17.857  35.534  45.584  1.00  0.00    +0.000 N 
ATOM     93  H8  UNL A   1      17.126  35.068  45.117  1.00  0.00    +0.000 H 
BRANCH   13    2
ATOM      1  O1  UNL A   1      19.926  36.328  44.989  1.00  0.00    +0.000 O 
ATOM      2  C1  UNL A   1      19.135  35.400  45.114  1.00  0.00    +0.000 C 
BRANCH    2    3
ATOM      3  C2  UNL A   1      19.576  34.021  44.785  1.00  0.00    +0.000 C 
ATOM     86  H1  UNL A   1      20.076  33.887  43.892  1.00  0.00    +0.000 H 
BRANCH    3    4
ATOM      4  C3  UNL A   1      19.382  32.932  45.547  1.00  0.00    +0.000 C 
ATOM     87  H2  UNL A   1      19.595  32.987  46.555  1.00  0.00    +0.000 H 
BRANCH    4    5
ATOM      5  C4  UNL A   1      18.877  31.665  44.998  1.00  0.00    +0.000 C 
ATOM      6  C5  UNL A   1      19.670  30.505  44.939  1.00  0.00    +0.000 C 
ATOM      7  C6  UNL A   1      19.168  29.320  44.388  1.00  0.00    +0.000 C 
ATOM      8  C7  UNL A   1      17.865  29.295  43.909  1.00  0.00    +0.000 C 
ATOM     10  C8  UNL A   1      17.066  30.431  43.991  1.00  0.00    +0.000 C 
ATOM     12  C9  UNL A   1      17.555  31.610  44.537  1.00  0.00    +0.000 C 
ATOM     88  H3  UNL A   1      20.634  30.527  45.306  1.00  0.00    +0.000 H 
ATOM     89  H4  UNL A   1      19.759  28.475  44.339  1.00  0.00    +0.000 H 
ATOM     92  H7  UNL A   1      16.949  32.443  44.604  1.00  0.00    +0.000 H 
BRANCH    8    9
ATOM      9  O2  UNL A   1      17.323  28.175  43.342  1.00  0.00    +0.000 O 
ATOM     90  H5  UNL A   1      16.552  28.243  42.815  1.00  0.00    +0.000 H 
ENDBRANCH    8    9
BRANCH   10   11
ATOM     11  O3  UNL A   1      15.784  30.398  43.522  1.00  0.00    +0.000 O 
ATOM     91  H6  UNL A   1      15.153  29.831  43.922  1.00  0.00    +0.000 H 
ENDBRANCH   10   11
ENDBRANCH    4    5
ENDBRANCH    3    4
ENDBRANCH    2    3
ENDBRANCH   13    2
ENDBRANCH   14   13
ENDBRANCH   15   14
ENDBRANCH   16   15
ENDBRANCH   17   16
ENDBRANCH   18   17
ENDBRANCH   19   18
ENDBRANCH   20   19
ENDBRANCH   21   20
ENDBRANCH   23   21
ENDBRANCH   27   26
BRANCH   31   32
ATOM     33  C26 UNL A   1      24.498  32.575  46.498  1.00  0.00    +0.000 C 
ATOM     34  F1  UNL A   1      25.271  32.727  47.585  1.00  0.00    +0.000 F 
ATOM     35  C27 UNL A   1      24.275  31.290  46.010  1.00  0.00    +0.000 C 
ATOM     36  F2  UNL A   1      24.836  30.236  46.619  1.00  0.00    +0.000 F 
ATOM     37  C28 UNL A   1      23.486  31.100  44.885  1.00  0.00    +0.000 C 
ATOM     38  F3  UNL A   1      23.270  29.863  44.417  1.00  0.00    +0.000 F 
ATOM     39  C29 UNL A   1      22.929  32.195  44.240  1.00  0.00    +0.000 C 
ATOM     40  F4  UNL A   1      22.157  32.012  43.159  1.00  0.00    +0.000 F 
ATOM     41  C30 UNL A   1      23.175  33.483  44.709  1.00  0.00    +0.000 C 
ATOM     42  F5  UNL A   1      22.637  34.522  44.052  1.00  0.00    +0.000 F 
ATOM     32  C25 UNL A   1      23.968  33.698  45.845  1.00  0.00    +0.000 C 
ENDBRANCH   31   32
BRANCH   48   49
ATOM     49  C36 UNL A   1      29.196  38.668  45.638  1.00  0.00    +0.000 C 
ATOM     50  C37 UNL A   1      29.399  39.376  44.445  1.00  0.00    +0.000 C 
ATOM     51  F6  UNL A   1      28.354  39.888  43.777  1.00  0.00    +0.000 F 
ATOM     52  C38 UNL A   1      30.678  39.532  43.915  1.00  0.00    +0.000 C 
ATOM     53  F7  UNL A   1      30.845  40.178  42.753  1.00  0.00    +0.000 F 
ATOM     54  C39 UNL A   1      31.776  39.009  44.580  1.00  0.00    +0.000 C 
ATOM     55  F8  UNL A   1      33.006  39.165  44.072  1.00  0.00    +0.000 F 
ATOM     56  C40 UNL A   1      31.598  38.316  45.769  1.00  0.00    +0.000 C 
ATOM     57  F9  UNL A   1      32.660  37.818  46.418  1.00  0.00    +0.000 F 
ATOM     58  C41 UNL A   1      30.319  38.136  46.289  1.00  0.00    +0.000 C 
ATOM     59  F10 UNL A   1      30.177  37.453  47.434  1.00  0.00    +0.000 F 
ENDBRANCH   48   49
BRANCH   63   64
ATOM     65  C46 UNL A   1      24.988  43.973  49.029  1.00  0.00    +0.000 C 
ATOM     66  F11 UNL A   1      24.512  43.917  47.777  1.00  0.00    +0.000 F 
ATOM     67  C47 UNL A   1      25.172  45.217  49.627  1.00  0.00    +0.000 C 
ATOM     68  F12 UNL A   1      24.878  46.335  48.949  1.00  0.00    +0.000 F 
ATOM     69  C48 UNL A   1      25.667  45.302  50.921  1.00  0.00    +0.000 C 
ATOM     70  F13 UNL A   1      25.832  46.499  51.500  1.00  0.00    +0.000 F 
ATOM     71  C49 UNL A   1      25.992  44.144  51.612  1.00  0.00    +0.000 C 
ATOM     72  F14 UNL A   1      26.456  44.221  52.866  1.00  0.00    +0.000 F 
ATOM     73  C50 UNL A   1      25.831  42.900  51.005  1.00  0.00    +0.000 C 
ATOM     74  F15 UNL A   1      26.154  41.797  51.695  1.00  0.00    +0.000 F 
ATOM     64  C45 UNL A   1      25.317  42.790  49.706  1.00  0.00    +0.000 C 
ENDBRANCH   63   64
TORSDOF 19
ENDMDL
MODEL 7
REMARK VINA RESULT:      -8.0     45.036     48.232
ROOT
ATOM     27  C21 UNL A   1      24.813  39.314  47.174  1.00  0.00    +0.000 C 
ATOM     28  C22 UNL A   1      24.232  37.955  46.909  1.00  0.00    +0.000 C 
ATOM     29  N3  UNL A   1      23.034  37.500  47.177  1.00  0.00    +0.000 N 
ATOM     30  C23 UNL A   1      23.007  36.199  46.695  1.00  0.00    +0.000 C 
ATOM     31  C24 UNL A   1      22.010  35.286  46.783  1.00  0.00    +0.000 C 
ATOM     43  C31 UNL A   1      20.739  35.527  47.414  1.00  0.00    +0.000 C 
ATOM     44  C32 UNL A   1      19.691  34.645  47.612  1.00  0.00    +0.000 C 
ATOM     45  C33 UNL A   1      18.640  35.341  48.219  1.00  0.00    +0.000 C 
ATOM     46  C34 UNL A   1      19.048  36.647  48.439  1.00  0.00    +0.000 C 
ATOM     47  N4  UNL A   1      20.338  36.747  47.941  1.00  0.00    +0.000 N 
ATOM     48  C35 UNL A   1      18.318  37.727  49.053  1.00  0.00    +0.000 C 
ATOM     60  C42 UNL A   1      18.810  38.969  49.276  1.00  0.00    +0.000 C 
ATOM     61  N5  UNL A   1      20.064  39.478  48.966  1.00  0.00    +0.000 N 
ATOM     62  C43 UNL A   1      20.053  40.727  49.363  1.00  0.00    +0.000 C 
ATOM     63  C44 UNL A   1      21.149  41.753  49.284  1.00  0.00    +0.000 C 
ATOM     75  C51 UNL A   1      22.351  41.401  48.790  1.00  0.00    +0.000 C 
ATOM     76  C52 UNL A   1      23.501  42.290  48.657  1.00  0.00    +0.000 C 
ATOM     77  C53 UNL A   1      24.500  41.626  48.056  1.00  0.00    +0.000 C 
ATOM     78  C54 UNL A   1      24.071  40.252  47.792  1.00  0.00    +0.000 C 
ATOM     79  N6  UNL A   1      22.792  40.201  48.289  1.00  0.00    +0.000 N 
ATOM     80  C55 UNL A   1      18.782  41.158  49.960  1.00  0.00    +0.000 C 
ATOM     81  C56 UNL A   1      18.070  40.041  49.911  1.00  0.00    +0.000 C 
ATOM     82  C57 UNL A   1      24.291  35.955  46.072  1.00  0.00    +0.000 C 
ATOM     83  C58 UNL A   1      25.107  36.987  46.230  1.00  0.00    +0.000 C 
ATOM    109  H24 UNL A   1      19.686  33.645  47.357  1.00  0.00    +0.000 H 
ATOM    110  H25 UNL A   1      17.717  34.949  48.463  1.00  0.00    +0.000 H 
ATOM    111  H26 UNL A   1      20.889  37.562  47.959  1.00  0.00    +0.000 H 
ATOM    112  H27 UNL A   1      23.539  43.271  48.975  1.00  0.00    +0.000 H 
ATOM    113  H28 UNL A   1      25.423  42.021  47.818  1.00  0.00    +0.000 H 
ATOM    114  H29 UNL A   1      22.244  39.383  48.286  1.00  0.00    +0.000 H 
ATOM    115  H30 UNL A   1      18.514  42.086  50.323  1.00  0.00    +0.000 H 
ATOM    116  H31 UNL A   1      17.111  39.947  50.278  1.00  0.00    +0.000 H 
ATOM    117  H32 UNL A   1      24.539  35.087  45.570  1.00  0.00    +0.000 H 
ATOM    118  H33 UNL A   1      26.095  37.086  45.950  1.00  0.00    +0.000 H 
ENDROOT
BRANCH   27   26
ATOM    107  H22 UNL A   1      27.750  41.072  44.069  1.00  0.00    +0.000 H 
ATOM    108  H23 UNL A   1      25.522  40.737  44.974  1.00  0.00    +0.000 H 
ATOM     84  C59 UNL A   1      27.298  39.252  47.404  1.00  0.00    +0.000 C 
ATOM     85  C60 UNL A   1      28.579  39.512  46.921  1.00  0.00    +0.000 C 
ATOM    120  H35 UNL A   1      29.405  39.265  47.487  1.00  0.00    +0.000 H 
ATOM     23  C17 UNL A   1      28.741  40.109  45.668  1.00  0.00    +0.000 C 
ATOM     24  C18 UNL A   1      27.626  40.576  44.965  1.00  0.00    +0.000 C 
ATOM     25  C19 UNL A   1      26.344  40.370  45.479  1.00  0.00    +0.000 C 
ATOM    119  H34 UNL A   1      27.180  38.753  48.300  1.00  0.00    +0.000 H 
ATOM     26  C20 UNL A   1      26.169  39.666  46.682  1.00  0.00    +0.000 C 
BRANCH   23   21
ATOM     21  C16 UNL A   1      30.081  40.263  45.058  1.00  0.00    +0.000 C 
ATOM     22  O4  UNL A   1      30.894  41.030  45.567  1.00  0.00    +0.000 O 
BRANCH   21   20
ATOM    106  H21 UNL A   1      30.598  40.140  43.129  1.00  0.00    +0.000 H 
ATOM     20  N2  UNL A   1      30.405  39.577  43.913  1.00  0.00    +0.000 N 
BRANCH   20   19
ATOM    105  H20 UNL A   1      31.269  37.987  42.951  1.00  0.00    +0.000 H 
ATOM     19  C15 UNL A   1      30.508  38.144  43.686  1.00  0.00    +0.000 C 
ATOM    104  H19 UNL A   1      29.558  37.780  43.354  1.00  0.00    +0.000 H 
BRANCH   19   18
ATOM     18  C14 UNL A   1      30.914  37.374  44.941  1.00  0.00    +0.000 C 
ATOM    102  H17 UNL A   1      31.912  37.016  44.801  1.00  0.00    +0.000 H 
ATOM    103  H18 UNL A   1      30.815  38.063  45.754  1.00  0.00    +0.000 H 
BRANCH   18   17
ATOM     17  C13 UNL A   1      30.027  36.176  45.289  1.00  0.00    +0.000 C 
ATOM    100  H15 UNL A   1      30.421  35.318  44.787  1.00  0.00    +0.000 H 
ATOM    101  H16 UNL A   1      30.046  36.098  46.357  1.00  0.00    +0.000 H 
BRANCH   17   16
ATOM     98  H13 UNL A   1      28.092  36.988  45.599  1.00  0.00    +0.000 H 
ATOM     99  H14 UNL A   1      28.542  36.662  43.894  1.00  0.00    +0.000 H 
ATOM     16  C12 UNL A   1      28.551  36.314  44.905  1.00  0.00    +0.000 C 
BRANCH   16   15
ATOM     97  H12 UNL A   1      27.952  34.523  43.979  1.00  0.00    +0.000 H 
ATOM     15  C11 UNL A   1      27.741  35.011  44.907  1.00  0.00    +0.000 C 
ATOM     96  H11 UNL A   1      26.707  35.261  45.026  1.00  0.00    +0.000 H 
BRANCH   15   14
ATOM     94  H9  UNL A   1      28.123  33.033  45.604  1.00  0.00    +0.000 H 
ATOM     14  C10 UNL A   1      28.122  34.023  46.011  1.00  0.00    +0.000 C 
ATOM     95  H10 UNL A   1      29.092  34.291  46.376  1.00  0.00    +0.000 H 
BRANCH   14   13
ATOM     13  N1  UNL A   1      27.194  34.071  47.121  1.00  0.00    +0.000 N 
ATOM     93  H8  UNL A   1      26.403  33.484  47.107  1.00  0.00    +0.000 H 
BRANCH   13    2
ATOM      1  O1  UNL A   1      28.410  35.537  48.402  1.00  0.00    +0.000 O 
ATOM      2  C1  UNL A   1      27.381  34.905  48.190  1.00  0.00    +0.000 C 
BRANCH    2    3
ATOM      3  C2  UNL A   1      26.227  35.067  49.110  1.00  0.00    +0.000 C 
ATOM     86  H1  UNL A   1      25.606  34.252  49.234  1.00  0.00    +0.000 H 
BRANCH    3    4
ATOM      4  C3  UNL A   1      25.920  36.180  49.795  1.00  0.00    +0.000 C 
ATOM     87  H2  UNL A   1      26.671  36.854  50.011  1.00  0.00    +0.000 H 
BRANCH    4    5
ATOM      5  C4  UNL A   1      24.553  36.475  50.250  1.00  0.00    +0.000 C 
ATOM      6  C5  UNL A   1      24.152  37.768  50.631  1.00  0.00    +0.000 C 
ATOM      7  C6  UNL A   1      22.849  38.012  51.084  1.00  0.00    +0.000 C 
ATOM      8  C7  UNL A   1      21.945  36.960  51.140  1.00  0.00    +0.000 C 
ATOM     10  C8  UNL A   1      22.327  35.684  50.737  1.00  0.00    +0.000 C 
ATOM     12  C9  UNL A   1      23.616  35.434  50.286  1.00  0.00    +0.000 C 
ATOM     88  H3  UNL A   1      24.826  38.547  50.577  1.00  0.00    +0.000 H 
ATOM     89  H4  UNL A   1      22.565  38.961  51.370  1.00  0.00    +0.000 H 
ATOM     92  H7  UNL A   1      23.884  34.486  49.979  1.00  0.00    +0.000 H 
BRANCH    8    9
ATOM      9  O2  UNL A   1      20.666  37.129  51.590  1.00  0.00    +0.000 O 
ATOM     90  H5  UNL A   1      20.236  36.436  52.053  1.00  0.00    +0.000 H 
ENDBRANCH    8    9
BRANCH   10   11
ATOM     11  O3  UNL A   1      21.431  34.655  50.791  1.00  0.00    +0.000 O 
ATOM     91  H6  UNL A   1      20.614  34.721  50.336  1.00  0.00    +0.000 H 
ENDBRANCH   10   11
ENDBRANCH    4    5
ENDBRANCH    3    4
ENDBRANCH    2    3
ENDBRANCH   13    2
ENDBRANCH   14   13
ENDBRANCH   15   14
ENDBRANCH   16   15
ENDBRANCH   17   16
ENDBRANCH   18   17
ENDBRANCH   19   18
ENDBRANCH   20   19
ENDBRANCH   21   20
ENDBRANCH   23   21
ENDBRANCH   27   26
BRANCH   31   32
ATOM     33  C26 UNL A   1      23.031  32.965  46.840  1.00  0.00    +0.000 C 
ATOM     34  F1  UNL A   1      23.589  33.243  48.029  1.00  0.00    +0.000 F 
ATOM     35  C27 UNL A   1      23.270  31.721  46.263  1.00  0.00    +0.000 C 
ATOM     36  F2  UNL A   1      24.054  30.833  46.889  1.00  0.00    +0.000 F 
ATOM     37  C28 UNL A   1      22.714  31.407  45.032  1.00  0.00    +0.000 C 
ATOM     38  F3  UNL A   1      22.943  30.209  44.477  1.00  0.00    +0.000 F 
ATOM     39  C29 UNL A   1      21.926  32.339  44.372  1.00  0.00    +0.000 C 
ATOM     40  F4  UNL A   1      21.378  32.032  43.187  1.00  0.00    +0.000 F 
ATOM     41  C30 UNL A   1      21.710  33.595  44.934  1.00  0.00    +0.000 C 
ATOM     42  F5  UNL A   1      20.959  34.481  44.262  1.00  0.00    +0.000 F 
ATOM     32  C25 UNL A   1      22.261  33.934  46.178  1.00  0.00    +0.000 C 
ENDBRANCH   31   32
BRANCH   48   49
ATOM     49  C36 UNL A   1      16.910  37.458  49.499  1.00  0.00    +0.000 C 
ATOM     50  C37 UNL A   1      16.568  37.425  50.857  1.00  0.00    +0.000 C 
ATOM     51  F6  UNL A   1      17.513  37.583  51.796  1.00  0.00    +0.000 F 
ATOM     52  C38 UNL A   1      15.254  37.194  51.259  1.00  0.00    +0.000 C 
ATOM     53  F7  UNL A   1      14.956  37.126  52.564  1.00  0.00    +0.000 F 
ATOM     54  C39 UNL A   1      14.257  37.020  50.311  1.00  0.00    +0.000 C 
ATOM     55  F8  UNL A   1      12.993  36.805  50.699  1.00  0.00    +0.000 F 
ATOM     56  C40 UNL A   1      14.572  37.063  48.961  1.00  0.00    +0.000 C 
ATOM     57  F9  UNL A   1      13.607  36.904  48.043  1.00  0.00    +0.000 F 
ATOM     58  C41 UNL A   1      15.888  37.267  48.556  1.00  0.00    +0.000 C 
ATOM     59  F10 UNL A   1      16.164  37.293  47.244  1.00  0.00    +0.000 F 
ENDBRANCH   48   49
BRANCH   63   64
ATOM     65  C46 UNL A   1      20.502  44.144  48.873  1.00  0.00    +0.000 C 
ATOM     66  F11 UNL A   1      20.328  43.860  47.575  1.00  0.00    +0.000 F 
ATOM     67  C47 UNL A   1      20.274  45.444  49.318  1.00  0.00    +0.000 C 
ATOM     68  F12 UNL A   1      19.891  46.389  48.449  1.00  0.00    +0.000 F 
ATOM     69  C48 UNL A   1      20.451  45.764  50.656  1.00  0.00    +0.000 C 
ATOM     70  F13 UNL A   1      20.219  47.012  51.085  1.00  0.00    +0.000 F 
ATOM     71  C49 UNL A   1      20.870  44.788  51.549  1.00  0.00    +0.000 C 
ATOM     72  F14 UNL A   1      21.028  45.089  52.845  1.00  0.00    +0.000 F 
ATOM     73  C50 UNL A   1      21.122  43.493  51.101  1.00  0.00    +0.000 C 
ATOM     74  F15 UNL A   1      21.527  42.570  51.984  1.00  0.00    +0.000 F 
ATOM     64  C45 UNL A   1      20.933  43.144  49.756  1.00  0.00    +0.000 C 
ENDBRANCH   63   64
TORSDOF 19
ENDMDL
MODEL 8
REMARK VINA RESULT:      -8.0      2.700      7.906
ROOT
ATOM     27  C21 UNL A   1      13.184  49.463   3.453  1.00  0.00    +0.000 C 
ATOM     28  C22 UNL A   1      14.075  49.136   2.289  1.00  0.00    +0.000 C 
ATOM     29  N3  UNL A   1      14.909  49.911   1.642  1.00  0.00    +0.000 N 
ATOM     30  C23 UNL A   1      15.504  49.106   0.680  1.00  0.00    +0.000 C 
ATOM     31  C24 UNL A   1      16.395  49.454  -0.279  1.00  0.00    +0.000 C 
ATOM     43  C31 UNL A   1      16.912  50.785  -0.466  1.00  0.00    +0.000 C 
ATOM     44  C32 UNL A   1      17.766  51.249  -1.450  1.00  0.00    +0.000 C 
ATOM     45  C33 UNL A   1      18.035  52.599  -1.196  1.00  0.00    +0.000 C 
ATOM     46  C34 UNL A   1      17.315  52.987  -0.078  1.00  0.00    +0.000 C 
ATOM     47  N4  UNL A   1      16.629  51.864   0.359  1.00  0.00    +0.000 N 
ATOM     48  C35 UNL A   1      17.256  54.283   0.550  1.00  0.00    +0.000 C 
ATOM     60  C42 UNL A   1      16.483  54.594   1.619  1.00  0.00    +0.000 C 
ATOM     61  N5  UNL A   1      15.622  53.777   2.338  1.00  0.00    +0.000 N 
ATOM     62  C43 UNL A   1      15.120  54.529   3.286  1.00  0.00    +0.000 C 
ATOM     63  C44 UNL A   1      14.124  54.168   4.352  1.00  0.00    +0.000 C 
ATOM     75  C51 UNL A   1      13.598  52.928   4.374  1.00  0.00    +0.000 C 
ATOM     76  C52 UNL A   1      12.625  52.443   5.346  1.00  0.00    +0.000 C 
ATOM     77  C53 UNL A   1      12.384  51.143   5.114  1.00  0.00    +0.000 C 
ATOM     78  C54 UNL A   1      13.162  50.714   3.951  1.00  0.00    +0.000 C 
ATOM     79  N6  UNL A   1      13.830  51.848   3.560  1.00  0.00    +0.000 N 
ATOM     80  C55 UNL A   1      15.617  55.912   3.284  1.00  0.00    +0.000 C 
ATOM     81  C56 UNL A   1      16.421  55.906   2.230  1.00  0.00    +0.000 C 
ATOM     82  C57 UNL A   1      14.973  47.771   0.863  1.00  0.00    +0.000 C 
ATOM     83  C58 UNL A   1      14.041  47.749   1.804  1.00  0.00    +0.000 C 
ATOM    109  H24 UNL A   1      18.140  50.697  -2.237  1.00  0.00    +0.000 H 
ATOM    110  H25 UNL A   1      18.664  53.204  -1.748  1.00  0.00    +0.000 H 
ATOM    111  H26 UNL A   1      16.030  51.836   1.140  1.00  0.00    +0.000 H 
ATOM    112  H27 UNL A   1      12.191  53.008   6.093  1.00  0.00    +0.000 H 
ATOM    113  H28 UNL A   1      11.752  50.543   5.665  1.00  0.00    +0.000 H 
ATOM    114  H29 UNL A   1      14.419  51.883   2.770  1.00  0.00    +0.000 H 
ATOM    115  H30 UNL A   1      15.398  56.684   3.932  1.00  0.00    +0.000 H 
ATOM    116  H31 UNL A   1      16.937  56.731   1.888  1.00  0.00    +0.000 H 
ATOM    117  H32 UNL A   1      15.281  46.944   0.327  1.00  0.00    +0.000 H 
ATOM    118  H33 UNL A   1      13.448  46.964   2.115  1.00  0.00    +0.000 H 
ENDROOT
BRANCH   27   26
ATOM    107  H22 UNL A   1       9.278  47.146   4.310  1.00  0.00    +0.000 H 
ATOM    108  H23 UNL A   1      10.611  48.714   3.022  1.00  0.00    +0.000 H 
ATOM     84  C59 UNL A   1      12.987  47.617   5.122  1.00  0.00    +0.000 C 
ATOM     85  C60 UNL A   1      12.240  46.663   5.809  1.00  0.00    +0.000 C 
ATOM    120  H35 UNL A   1      12.697  46.044   6.497  1.00  0.00    +0.000 H 
ATOM     23  C17 UNL A   1      10.869  46.545   5.563  1.00  0.00    +0.000 C 
ATOM     24  C18 UNL A   1      10.277  47.279   4.531  1.00  0.00    +0.000 C 
ATOM     25  C19 UNL A   1      11.041  48.191   3.800  1.00  0.00    +0.000 C 
ATOM    119  H34 UNL A   1      13.986  47.748   5.350  1.00  0.00    +0.000 H 
ATOM     26  C20 UNL A   1      12.392  48.400   4.121  1.00  0.00    +0.000 C 
BRANCH   23   21
ATOM     21  C16 UNL A   1      10.017  45.651   6.379  1.00  0.00    +0.000 C 
ATOM     22  O4  UNL A   1       8.928  45.288   5.943  1.00  0.00    +0.000 O 
BRANCH   21   20
ATOM    106  H21 UNL A   1      10.612  44.290   7.720  1.00  0.00    +0.000 H 
ATOM     20  N2  UNL A   1      10.425  45.252   7.628  1.00  0.00    +0.000 N 
BRANCH   20   19
ATOM    105  H20 UNL A   1       9.941  45.672   9.576  1.00  0.00    +0.000 H 
ATOM     19  C15 UNL A   1      10.622  46.038   8.836  1.00  0.00    +0.000 C 
ATOM    104  H19 UNL A   1      10.440  47.068   8.608  1.00  0.00    +0.000 H 
BRANCH   19   18
ATOM     18  C14 UNL A   1      12.033  45.906   9.404  1.00  0.00    +0.000 C 
ATOM    102  H17 UNL A   1      11.974  45.334  10.306  1.00  0.00    +0.000 H 
ATOM    103  H18 UNL A   1      12.616  45.440   8.637  1.00  0.00    +0.000 H 
BRANCH   18   17
ATOM     17  C13 UNL A   1      12.735  47.227   9.727  1.00  0.00    +0.000 C 
ATOM    100  H15 UNL A   1      13.731  47.001  10.047  1.00  0.00    +0.000 H 
ATOM    101  H16 UNL A   1      12.692  47.809   8.830  1.00  0.00    +0.000 H 
BRANCH   17   16
ATOM     98  H13 UNL A   1      11.332  47.476  11.299  1.00  0.00    +0.000 H 
ATOM     99  H14 UNL A   1      12.861  48.400  11.459  1.00  0.00    +0.000 H 
ATOM     16  C12 UNL A   1      12.071  48.079  10.813  1.00  0.00    +0.000 C 
BRANCH   16   15
ATOM     97  H12 UNL A   1      11.783  50.161  10.911  1.00  0.00    +0.000 H 
ATOM     15  C11 UNL A   1      11.385  49.361  10.322  1.00  0.00    +0.000 C 
ATOM     96  H11 UNL A   1      10.328  49.239  10.438  1.00  0.00    +0.000 H 
BRANCH   15   14
ATOM     94  H9  UNL A   1      12.495  49.138   8.517  1.00  0.00    +0.000 H 
ATOM     14  C10 UNL A   1      11.665  49.718   8.862  1.00  0.00    +0.000 C 
ATOM     95  H10 UNL A   1      10.784  49.505   8.293  1.00  0.00    +0.000 H 
BRANCH   14   13
ATOM     13  N1  UNL A   1      11.976  51.123   8.700  1.00  0.00    +0.000 N 
ATOM     93  H8  UNL A   1      11.253  51.746   8.459  1.00  0.00    +0.000 H 
BRANCH   13    2
ATOM      1  O1  UNL A   1      13.502  52.708   9.353  1.00  0.00    +0.000 O 
ATOM      2  C1  UNL A   1      13.243  51.611   8.870  1.00  0.00    +0.000 C 
BRANCH    2    3
ATOM      3  C2  UNL A   1      14.356  50.711   8.475  1.00  0.00    +0.000 C 
ATOM     86  H1  UNL A   1      14.251  49.708   8.695  1.00  0.00    +0.000 H 
BRANCH    3    4
ATOM      4  C3  UNL A   1      15.487  51.086   7.857  1.00  0.00    +0.000 C 
ATOM     87  H2  UNL A   1      16.011  51.894   8.226  1.00  0.00    +0.000 H 
BRANCH    4    5
ATOM      5  C4  UNL A   1      16.007  50.389   6.671  1.00  0.00    +0.000 C 
ATOM      6  C5  UNL A   1      15.941  48.990   6.534  1.00  0.00    +0.000 C 
ATOM      7  C6  UNL A   1      16.467  48.354   5.404  1.00  0.00    +0.000 C 
ATOM      8  C7  UNL A   1      17.048  49.121   4.404  1.00  0.00    +0.000 C 
ATOM     10  C8  UNL A   1      17.091  50.508   4.520  1.00  0.00    +0.000 C 
ATOM     12  C9  UNL A   1      16.571  51.147   5.637  1.00  0.00    +0.000 C 
ATOM     88  H3  UNL A   1      15.498  48.426   7.276  1.00  0.00    +0.000 H 
ATOM     89  H4  UNL A   1      16.423  47.327   5.315  1.00  0.00    +0.000 H 
ATOM     92  H7  UNL A   1      16.598  52.177   5.706  1.00  0.00    +0.000 H 
BRANCH    8    9
ATOM      9  O2  UNL A   1      17.597  48.559   3.286  1.00  0.00    +0.000 O 
ATOM     90  H5  UNL A   1      17.110  48.537   2.485  1.00  0.00    +0.000 H 
ENDBRANCH    8    9
BRANCH   10   11
ATOM     11  O3  UNL A   1      17.660  51.257   3.530  1.00  0.00    +0.000 O 
ATOM     91  H6  UNL A   1      17.121  51.660   2.878  1.00  0.00    +0.000 H 
ENDBRANCH   10   11
ENDBRANCH    4    5
ENDBRANCH    3    4
ENDBRANCH    2    3
ENDBRANCH   13    2
ENDBRANCH   14   13
ENDBRANCH   15   14
ENDBRANCH   16   15
ENDBRANCH   17   16
ENDBRANCH   18   17
ENDBRANCH   19   18
ENDBRANCH   20   19
ENDBRANCH   21   20
ENDBRANCH   23   21
ENDBRANCH   27   26
BRANCH   31   32
ATOM     33  C26 UNL A   1      16.154  48.034  -2.365  1.00  0.00    +0.000 C 
ATOM     34  F1  UNL A   1      15.006  48.664  -2.659  1.00  0.00    +0.000 F 
ATOM     35  C27 UNL A   1      16.593  47.015  -3.208  1.00  0.00    +0.000 C 
ATOM     36  F2  UNL A   1      15.866  46.676  -4.281  1.00  0.00    +0.000 F 
ATOM     37  C28 UNL A   1      17.771  46.340  -2.927  1.00  0.00    +0.000 C 
ATOM     38  F3  UNL A   1      18.193  45.360  -3.738  1.00  0.00    +0.000 F 
ATOM     39  C29 UNL A   1      18.507  46.674  -1.799  1.00  0.00    +0.000 C 
ATOM     40  F4  UNL A   1      19.652  46.029  -1.534  1.00  0.00    +0.000 F 
ATOM     41  C30 UNL A   1      18.055  47.672  -0.940  1.00  0.00    +0.000 C 
ATOM     42  F5  UNL A   1      18.779  47.959   0.152  1.00  0.00    +0.000 F 
ATOM     32  C25 UNL A   1      16.868  48.369  -1.204  1.00  0.00    +0.000 C 
ENDBRANCH   31   32
BRANCH   48   49
ATOM     49  C36 UNL A   1      18.099  55.381  -0.028  1.00  0.00    +0.000 C 
ATOM     50  C37 UNL A   1      19.309  55.765   0.568  1.00  0.00    +0.000 C 
ATOM     51  F6  UNL A   1      19.713  55.185   1.708  1.00  0.00    +0.000 F 
ATOM     52  C38 UNL A   1      20.093  56.772   0.011  1.00  0.00    +0.000 C 
ATOM     53  F7  UNL A   1      21.226  57.151   0.619  1.00  0.00    +0.000 F 
ATOM     54  C39 UNL A   1      19.697  57.393  -1.164  1.00  0.00    +0.000 C 
ATOM     55  F8  UNL A   1      20.456  58.358  -1.701  1.00  0.00    +0.000 F 
ATOM     56  C40 UNL A   1      18.510  57.020  -1.777  1.00  0.00    +0.000 C 
ATOM     57  F9  UNL A   1      18.131  57.613  -2.918  1.00  0.00    +0.000 F 
ATOM     58  C41 UNL A   1      17.711  56.032  -1.210  1.00  0.00    +0.000 C 
ATOM     59  F10 UNL A   1      16.564  55.699  -1.819  1.00  0.00    +0.000 F 
ENDBRANCH   48   49
BRANCH   63   64
ATOM     65  C46 UNL A   1      12.769  56.158   5.061  1.00  0.00    +0.000 C 
ATOM     66  F11 UNL A   1      12.288  56.260   3.814  1.00  0.00    +0.000 F 
ATOM     67  C47 UNL A   1      12.349  57.073   6.024  1.00  0.00    +0.000 C 
ATOM     68  F12 UNL A   1      11.480  58.039   5.694  1.00  0.00    +0.000 F 
ATOM     69  C48 UNL A   1      12.833  56.992   7.321  1.00  0.00    +0.000 C 
ATOM     70  F13 UNL A   1      12.420  57.865   8.250  1.00  0.00    +0.000 F 
ATOM     71  C49 UNL A   1      13.750  56.005   7.654  1.00  0.00    +0.000 C 
ATOM     72  F14 UNL A   1      14.210  55.914   8.909  1.00  0.00    +0.000 F 
ATOM     73  C50 UNL A   1      14.189  55.105   6.686  1.00  0.00    +0.000 C 
ATOM     74  F15 UNL A   1      15.077  54.162   7.034  1.00  0.00    +0.000 F 
ATOM     64  C45 UNL A   1      13.700  55.158   5.373  1.00  0.00    +0.000 C 
ENDBRANCH   63   64
TORSDOF 19
ENDMDL
MODEL 9
REMARK VINA RESULT:      -8.0     45.047     47.761
ROOT
ATOM     27  C21 UNL A   1      25.425  39.625  47.096  1.00  0.00    +0.000 C 
ATOM     28  C22 UNL A   1      24.900  38.238  46.857  1.00  0.00    +0.000 C 
ATOM     29  N3  UNL A   1      23.708  37.752  47.094  1.00  0.00    +0.000 N 
ATOM     30  C23 UNL A   1      23.743  36.435  46.658  1.00  0.00    +0.000 C 
ATOM     31  C24 UNL A   1      22.774  35.492  46.740  1.00  0.00    +0.000 C 
ATOM     43  C31 UNL A   1      21.470  35.712  47.310  1.00  0.00    +0.000 C 
ATOM     44  C32 UNL A   1      20.445  34.802  47.499  1.00  0.00    +0.000 C 
ATOM     45  C33 UNL A   1      19.347  35.482  48.038  1.00  0.00    +0.000 C 
ATOM     46  C34 UNL A   1      19.703  36.809  48.226  1.00  0.00    +0.000 C 
ATOM     47  N4  UNL A   1      21.008  36.935  47.776  1.00  0.00    +0.000 N 
ATOM     48  C35 UNL A   1      18.913  37.884  48.771  1.00  0.00    +0.000 C 
ATOM     60  C42 UNL A   1      19.355  39.149  48.968  1.00  0.00    +0.000 C 
ATOM     61  N5  UNL A   1      20.603  39.689  48.690  1.00  0.00    +0.000 N 
ATOM     62  C43 UNL A   1      20.535  40.950  49.040  1.00  0.00    +0.000 C 
ATOM     63  C44 UNL A   1      21.599  42.010  48.968  1.00  0.00    +0.000 C 
ATOM     75  C51 UNL A   1      22.831  41.683  48.535  1.00  0.00    +0.000 C 
ATOM     76  C52 UNL A   1      23.956  42.605  48.416  1.00  0.00    +0.000 C 
ATOM     77  C53 UNL A   1      25.000  41.955  47.880  1.00  0.00    +0.000 C 
ATOM     78  C54 UNL A   1      24.627  40.559  47.649  1.00  0.00    +0.000 C 
ATOM     79  N6  UNL A   1      23.331  40.482  48.096  1.00  0.00    +0.000 N 
ATOM     80  C55 UNL A   1      19.227  41.359  49.570  1.00  0.00    +0.000 C 
ATOM     81  C56 UNL A   1      18.555  40.217  49.533  1.00  0.00    +0.000 C 
ATOM     82  C57 UNL A   1      25.059  36.213  46.096  1.00  0.00    +0.000 C 
ATOM     83  C58 UNL A   1      25.833  37.278  46.250  1.00  0.00    +0.000 C 
ATOM    109  H24 UNL A   1      20.483  33.794  47.280  1.00  0.00    +0.000 H 
ATOM    110  H25 UNL A   1      18.428  35.068  48.259  1.00  0.00    +0.000 H 
ATOM    111  H26 UNL A   1      21.531  37.769  47.786  1.00  0.00    +0.000 H 
ATOM    112  H27 UNL A   1      23.949  43.597  48.699  1.00  0.00    +0.000 H 
ATOM    113  H28 UNL A   1      25.918  42.372  47.664  1.00  0.00    +0.000 H 
ATOM    114  H29 UNL A   1      22.811  39.645  48.102  1.00  0.00    +0.000 H 
ATOM    115  H30 UNL A   1      18.914  42.289  49.888  1.00  0.00    +0.000 H 
ATOM    116  H31 UNL A   1      17.585  40.103  49.865  1.00  0.00    +0.000 H 
ATOM    117  H32 UNL A   1      25.356  35.338  45.636  1.00  0.00    +0.000 H 
ATOM    118  H33 UNL A   1      26.828  37.401  46.006  1.00  0.00    +0.000 H 
ENDROOT
BRANCH   27   26
ATOM    107  H22 UNL A   1      28.512  40.894  43.900  1.00  0.00    +0.000 H 
ATOM    108  H23 UNL A   1      26.239  40.527  44.669  1.00  0.00    +0.000 H 
ATOM     84  C59 UNL A   1      27.862  39.928  47.544  1.00  0.00    +0.000 C 
ATOM     85  C60 UNL A   1      29.158  40.214  47.121  1.00  0.00    +0.000 C 
ATOM    120  H35 UNL A   1      29.935  40.220  47.800  1.00  0.00    +0.000 H 
ATOM     23  C17 UNL A   1      29.403  40.493  45.773  1.00  0.00    +0.000 C 
ATOM     24  C18 UNL A   1      28.335  40.628  44.881  1.00  0.00    +0.000 C 
ATOM     25  C19 UNL A   1      27.029  40.402  45.320  1.00  0.00    +0.000 C 
ATOM    119  H34 UNL A   1      27.691  39.659  48.526  1.00  0.00    +0.000 H 
ATOM     26  C20 UNL A   1      26.787  40.006  46.645  1.00  0.00    +0.000 C 
BRANCH   23   21
ATOM     21  C16 UNL A   1      30.782  40.651  45.261  1.00  0.00    +0.000 C 
ATOM     22  O4  UNL A   1      31.530  41.477  45.779  1.00  0.00    +0.000 O 
BRANCH   21   20
ATOM    106  H21 UNL A   1      31.300  40.396  43.345  1.00  0.00    +0.000 H 
ATOM     20  N2  UNL A   1      31.217  39.904  44.194  1.00  0.00    +0.000 N 
BRANCH   20   19
ATOM    105  H20 UNL A   1      31.810  38.176  45.122  1.00  0.00    +0.000 H 
ATOM     19  C15 UNL A   1      31.574  38.495  44.129  1.00  0.00    +0.000 C 
ATOM    104  H19 UNL A   1      32.409  38.383  43.469  1.00  0.00    +0.000 H 
BRANCH   19   18
ATOM     18  C14 UNL A   1      30.430  37.619  43.623  1.00  0.00    +0.000 C 
ATOM    102  H17 UNL A   1      29.879  38.181  42.899  1.00  0.00    +0.000 H 
ATOM    103  H18 UNL A   1      30.888  36.738  43.225  1.00  0.00    +0.000 H 
BRANCH   18   17
ATOM     17  C13 UNL A   1      29.449  37.139  44.695  1.00  0.00    +0.000 C 
ATOM    100  H15 UNL A   1      28.738  37.920  44.864  1.00  0.00    +0.000 H 
ATOM    101  H16 UNL A   1      29.017  36.237  44.315  1.00  0.00    +0.000 H 
BRANCH   17   16
ATOM     98  H13 UNL A   1      30.641  35.872  45.908  1.00  0.00    +0.000 H 
ATOM     99  H14 UNL A   1      30.664  37.613  46.335  1.00  0.00    +0.000 H 
ATOM     16  C12 UNL A   1      30.074  36.770  46.043  1.00  0.00    +0.000 C 
BRANCH   16   15
ATOM     97  H12 UNL A   1      28.376  35.813  46.835  1.00  0.00    +0.000 H 
ATOM     15  C11 UNL A   1      29.084  36.533  47.191  1.00  0.00    +0.000 C 
ATOM     96  H11 UNL A   1      28.637  37.472  47.445  1.00  0.00    +0.000 H 
BRANCH   15   14
ATOM     94  H9  UNL A   1      30.768  35.993  48.380  1.00  0.00    +0.000 H 
ATOM     14  C10 UNL A   1      29.702  35.941  48.458  1.00  0.00    +0.000 C 
ATOM     95  H10 UNL A   1      29.349  36.507  49.295  1.00  0.00    +0.000 H 
BRANCH   14   13
ATOM     13  N1  UNL A   1      29.314  34.560  48.653  1.00  0.00    +0.000 N 
ATOM     93  H8  UNL A   1      30.000  33.905  48.920  1.00  0.00    +0.000 H 
BRANCH   13    2
ATOM      1  O1  UNL A   1      27.058  34.596  49.071  1.00  0.00    +0.000 O 
ATOM      2  C1  UNL A   1      28.026  34.134  48.477  1.00  0.00    +0.000 C 
BRANCH    2    3
ATOM      3  C2  UNL A   1      27.815  33.072  47.461  1.00  0.00    +0.000 C 
ATOM     86  H1  UNL A   1      27.989  32.098  47.756  1.00  0.00    +0.000 H 
BRANCH    3    4
ATOM      4  C3  UNL A   1      27.418  33.266  46.193  1.00  0.00    +0.000 C 
ATOM     87  H2  UNL A   1      26.409  33.246  45.980  1.00  0.00    +0.000 H 
BRANCH    4    5
ATOM      5  C4  UNL A   1      28.369  33.507  45.097  1.00  0.00    +0.000 C 
ATOM      6  C5  UNL A   1      27.951  33.925  43.821  1.00  0.00    +0.000 C 
ATOM      7  C6  UNL A   1      28.879  34.121  42.791  1.00  0.00    +0.000 C 
ATOM      8  C7  UNL A   1      30.227  33.912  43.046  1.00  0.00    +0.000 C 
ATOM     10  C8  UNL A   1      30.650  33.526  44.315  1.00  0.00    +0.000 C 
ATOM     12  C9  UNL A   1      29.737  33.330  45.342  1.00  0.00    +0.000 C 
ATOM     88  H3  UNL A   1      26.949  34.088  43.641  1.00  0.00    +0.000 H 
ATOM     89  H4  UNL A   1      28.565  34.419  41.854  1.00  0.00    +0.000 H 
ATOM     92  H7  UNL A   1      30.063  33.055  46.282  1.00  0.00    +0.000 H 
BRANCH    8    9
ATOM      9  O2  UNL A   1      31.180  34.068  42.078  1.00  0.00    +0.000 O 
ATOM     90  H5  UNL A   1      30.967  34.501  41.275  1.00  0.00    +0.000 H 
ENDBRANCH    8    9
BRANCH   10   11
ATOM     11  O3  UNL A   1      31.978  33.327  44.559  1.00  0.00    +0.000 O 
ATOM     91  H6  UNL A   1      32.297  32.463  44.737  1.00  0.00    +0.000 H 
ENDBRANCH   10   11
ENDBRANCH    4    5
ENDBRANCH    3    4
ENDBRANCH    2    3
ENDBRANCH   13    2
ENDBRANCH   14   13
ENDBRANCH   15   14
ENDBRANCH   16   15
ENDBRANCH   17   16
ENDBRANCH   18   17
ENDBRANCH   19   18
ENDBRANCH   20   19
ENDBRANCH   21   20
ENDBRANCH   23   21
ENDBRANCH   27   26
BRANCH   31   32
ATOM     33  C26 UNL A   1      23.845  33.202  46.932  1.00  0.00    +0.000 C 
ATOM     34  F1  UNL A   1      24.324  33.531  48.143  1.00  0.00    +0.000 F 
ATOM     35  C27 UNL A   1      24.149  31.948  46.411  1.00  0.00    +0.000 C 
ATOM     36  F2  UNL A   1      24.915  31.100  47.111  1.00  0.00    +0.000 F 
ATOM     37  C28 UNL A   1      23.676  31.582  45.160  1.00  0.00    +0.000 C 
ATOM     38  F3  UNL A   1      23.967  30.373  44.659  1.00  0.00    +0.000 F 
ATOM     39  C29 UNL A   1      22.906  32.471  44.424  1.00  0.00    +0.000 C 
ATOM     40  F4  UNL A   1      22.438  32.114  43.220  1.00  0.00    +0.000 F 
ATOM     41  C30 UNL A   1      22.626  33.738  44.932  1.00  0.00    +0.000 C 
ATOM     42  F5  UNL A   1      21.895  34.583  44.189  1.00  0.00    +0.000 F 
ATOM     32  C25 UNL A   1      23.093  34.130  46.195  1.00  0.00    +0.000 C 
ENDBRANCH   31   32
BRANCH   48   49
ATOM     49  C36 UNL A   1      17.498  37.582  49.169  1.00  0.00    +0.000 C 
ATOM     50  C37 UNL A   1      16.520  37.275  48.214  1.00  0.00    +0.000 C 
ATOM     51  F6  UNL A   1      16.823  37.297  46.906  1.00  0.00    +0.000 F 
ATOM     52  C38 UNL A   1      15.214  36.977  48.596  1.00  0.00    +0.000 C 
ATOM     53  F7  UNL A   1      14.285  36.726  47.663  1.00  0.00    +0.000 F 
ATOM     54  C39 UNL A   1      14.871  36.954  49.939  1.00  0.00    +0.000 C 
ATOM     55  F8  UNL A   1      13.616  36.661  50.306  1.00  0.00    +0.000 F 
ATOM     56  C40 UNL A   1      15.827  37.242  50.902  1.00  0.00    +0.000 C 
ATOM     57  F9  UNL A   1      15.498  37.210  52.201  1.00  0.00    +0.000 F 
ATOM     58  C41 UNL A   1      17.126  37.565  50.522  1.00  0.00    +0.000 C 
ATOM     59  F10 UNL A   1      18.026  37.848  51.475  1.00  0.00    +0.000 F 
ENDBRANCH   48   49
BRANCH   63   64
ATOM     65  C46 UNL A   1      20.904  44.364  48.443  1.00  0.00    +0.000 C 
ATOM     66  F11 UNL A   1      20.805  44.033  47.148  1.00  0.00    +0.000 F 
ATOM     67  C47 UNL A   1      20.616  45.671  48.831  1.00  0.00    +0.000 C 
ATOM     68  F12 UNL A   1      20.250  46.575  47.911  1.00  0.00    +0.000 F 
ATOM     69  C48 UNL A   1      20.714  46.040  50.164  1.00  0.00    +0.000 C 
ATOM     70  F13 UNL A   1      20.424  47.294  50.537  1.00  0.00    +0.000 F 
ATOM     71  C49 UNL A   1      21.115  45.108  51.109  1.00  0.00    +0.000 C 
ATOM     72  F14 UNL A   1      21.198  45.456  52.400  1.00  0.00    +0.000 F 
ATOM     73  C50 UNL A   1      21.428  43.807  50.720  1.00  0.00    +0.000 C 
ATOM     74  F15 UNL A   1      21.814  42.926  51.654  1.00  0.00    +0.000 F 
ATOM     64  C45 UNL A   1      21.319  43.408  49.380  1.00  0.00    +0.000 C 
ENDBRANCH   63   64
TORSDOF 19
ENDMDL
MODEL 10
REMARK VINA RESULT:      -7.9     40.149     44.434
ROOT
ATOM     27  C21 UNL A   1      41.642  26.133  27.843  1.00  0.00    +0.000 C 
ATOM     28  C22 UNL A   1      40.917  27.241  28.551  1.00  0.00    +0.000 C 
ATOM     29  N3  UNL A   1      41.331  28.450  28.839  1.00  0.00    +0.000 N 
ATOM     30  C23 UNL A   1      40.262  29.077  29.463  1.00  0.00    +0.000 C 
ATOM     31  C24 UNL A   1      40.208  30.318  30.002  1.00  0.00    +0.000 C 
ATOM     43  C31 UNL A   1      41.305  31.251  30.009  1.00  0.00    +0.000 C 
ATOM     44  C32 UNL A   1      41.369  32.505  30.590  1.00  0.00    +0.000 C 
ATOM     45  C33 UNL A   1      42.617  33.064  30.290  1.00  0.00    +0.000 C 
ATOM     46  C34 UNL A   1      43.347  32.141  29.558  1.00  0.00    +0.000 C 
ATOM     47  N4  UNL A   1      42.530  31.033  29.395  1.00  0.00    +0.000 N 
ATOM     48  C35 UNL A   1      44.688  32.258  29.043  1.00  0.00    +0.000 C 
ATOM     60  C42 UNL A   1      45.351  31.284  28.376  1.00  0.00    +0.000 C 
ATOM     61  N5  UNL A   1      44.915  30.012  28.032  1.00  0.00    +0.000 N 
ATOM     62  C43 UNL A   1      45.908  29.455  27.382  1.00  0.00    +0.000 C 
ATOM     63  C44 UNL A   1      45.992  28.078  26.785  1.00  0.00    +0.000 C 
ATOM     75  C51 UNL A   1      44.960  27.226  26.936  1.00  0.00    +0.000 C 
ATOM     76  C52 UNL A   1      44.907  25.865  26.413  1.00  0.00    +0.000 C 
ATOM     77  C53 UNL A   1      43.703  25.339  26.684  1.00  0.00    +0.000 C 
ATOM     78  C54 UNL A   1      42.911  26.316  27.431  1.00  0.00    +0.000 C 
ATOM     79  N6  UNL A   1      43.749  27.396  27.560  1.00  0.00    +0.000 N 
ATOM     80  C55 UNL A   1      47.086  30.318  27.228  1.00  0.00    +0.000 C 
ATOM     81  C56 UNL A   1      46.706  31.409  27.878  1.00  0.00    +0.000 C 
ATOM     82  C57 UNL A   1      39.164  28.133  29.466  1.00  0.00    +0.000 C 
ATOM     83  C58 UNL A   1      39.536  26.962  28.969  1.00  0.00    +0.000 C 
ATOM    109  H24 UNL A   1      40.626  32.952  31.149  1.00  0.00    +0.000 H 
ATOM    110  H25 UNL A   1      42.939  34.005  30.566  1.00  0.00    +0.000 H 
ATOM    111  H26 UNL A   1      42.782  30.212  28.914  1.00  0.00    +0.000 H 
ATOM    112  H27 UNL A   1      45.673  25.385  25.915  1.00  0.00    +0.000 H 
ATOM    113  H28 UNL A   1      43.386  24.396  26.409  1.00  0.00    +0.000 H 
ATOM    114  H29 UNL A   1      43.506  28.213  28.054  1.00  0.00    +0.000 H 
ATOM    115  H30 UNL A   1      47.976  30.126  26.742  1.00  0.00    +0.000 H 
ATOM    116  H31 UNL A   1      47.299  32.242  28.012  1.00  0.00    +0.000 H 
ATOM    117  H32 UNL A   1      38.215  28.344  29.812  1.00  0.00    +0.000 H 
ATOM    118  H33 UNL A   1      38.997  26.085  28.894  1.00  0.00    +0.000 H 
ENDROOT
BRANCH   27   26
ATOM    107  H22 UNL A   1      41.156  21.538  27.953  1.00  0.00    +0.000 H 
ATOM    108  H23 UNL A   1      42.155  23.615  28.718  1.00  0.00    +0.000 H 
ATOM     84  C59 UNL A   1      39.849  24.884  26.636  1.00  0.00    +0.000 C 
ATOM     85  C60 UNL A   1      39.227  23.696  26.258  1.00  0.00    +0.000 C 
ATOM    120  H35 UNL A   1      38.381  23.720  25.668  1.00  0.00    +0.000 H 
ATOM     23  C17 UNL A   1      39.752  22.472  26.680  1.00  0.00    +0.000 C 
ATOM     24  C18 UNL A   1      40.809  22.441  27.595  1.00  0.00    +0.000 C 
ATOM     25  C19 UNL A   1      41.393  23.636  28.023  1.00  0.00    +0.000 C 
ATOM    119  H34 UNL A   1      39.499  25.785  26.271  1.00  0.00    +0.000 H 
ATOM     26  C20 UNL A   1      40.945  24.865  27.511  1.00  0.00    +0.000 C 
BRANCH   23   21
ATOM     21  C16 UNL A   1      39.211  21.190  26.176  1.00  0.00    +0.000 C 
ATOM     22  O4  UNL A   1      39.968  20.239  26.002  1.00  0.00    +0.000 O 
BRANCH   21   20
ATOM    106  H21 UNL A   1      37.287  20.899  26.643  1.00  0.00    +0.000 H 
ATOM     20  N2  UNL A   1      37.877  21.070  25.874  1.00  0.00    +0.000 N 
BRANCH   20   19
ATOM    105  H20 UNL A   1      37.404  20.254  24.053  1.00  0.00    +0.000 H 
ATOM     19  C15 UNL A   1      37.203  21.160  24.587  1.00  0.00    +0.000 C 
ATOM    104  H19 UNL A   1      37.575  22.016  24.064  1.00  0.00    +0.000 H 
BRANCH   19   18
ATOM     18  C14 UNL A   1      35.688  21.289  24.721  1.00  0.00    +0.000 C 
ATOM    102  H17 UNL A   1      35.346  21.965  23.965  1.00  0.00    +0.000 H 
ATOM    103  H18 UNL A   1      35.298  20.298  24.620  1.00  0.00    +0.000 H 
BRANCH   18   17
ATOM     17  C13 UNL A   1      35.192  21.804  26.074  1.00  0.00    +0.000 C 
ATOM    100  H15 UNL A   1      34.228  21.378  26.255  1.00  0.00    +0.000 H 
ATOM    101  H16 UNL A   1      35.934  21.511  26.789  1.00  0.00    +0.000 H 
BRANCH   17   16
ATOM     98  H13 UNL A   1      35.466  23.612  27.149  1.00  0.00    +0.000 H 
ATOM     99  H14 UNL A   1      35.605  23.732  25.365  1.00  0.00    +0.000 H 
ATOM     16  C12 UNL A   1      35.069  23.325  26.197  1.00  0.00    +0.000 C 
BRANCH   16   15
ATOM     97  H12 UNL A   1      33.553  24.294  25.108  1.00  0.00    +0.000 H 
ATOM     15  C11 UNL A   1      33.645  23.886  26.092  1.00  0.00    +0.000 C 
ATOM     96  H11 UNL A   1      33.516  24.616  26.864  1.00  0.00    +0.000 H 
BRANCH   15   14
ATOM     94  H9  UNL A   1      32.925  21.885  25.963  1.00  0.00    +0.000 H 
ATOM     14  C10 UNL A   1      32.535  22.844  26.233  1.00  0.00    +0.000 C 
ATOM     95  H10 UNL A   1      32.201  22.851  27.251  1.00  0.00    +0.000 H 
BRANCH   14   13
ATOM     13  N1  UNL A   1      31.401  23.144  25.385  1.00  0.00    +0.000 N 
ATOM     93  H8  UNL A   1      30.563  23.451  25.801  1.00  0.00    +0.000 H 
BRANCH   13    2
ATOM      1  O1  UNL A   1      30.795  23.683  23.238  1.00  0.00    +0.000 O 
ATOM      2  C1  UNL A   1      31.457  23.015  24.024  1.00  0.00    +0.000 C 
BRANCH    2    3
ATOM      3  C2  UNL A   1      32.426  22.021  23.495  1.00  0.00    +0.000 C 
ATOM     86  H1  UNL A   1      33.419  22.303  23.462  1.00  0.00    +0.000 H 
BRANCH    3    4
ATOM      4  C3  UNL A   1      32.125  20.788  23.056  1.00  0.00    +0.000 C 
ATOM     87  H2  UNL A   1      31.584  20.690  22.183  1.00  0.00    +0.000 H 
BRANCH    4    5
ATOM      5  C4  UNL A   1      32.536  19.572  23.774  1.00  0.00    +0.000 C 
ATOM      6  C5  UNL A   1      32.343  19.418  25.159  1.00  0.00    +0.000 C 
ATOM      7  C6  UNL A   1      32.768  18.258  25.818  1.00  0.00    +0.000 C 
ATOM      8  C7  UNL A   1      33.374  17.247  25.085  1.00  0.00    +0.000 C 
ATOM     10  C8  UNL A   1      33.542  17.382  23.710  1.00  0.00    +0.000 C 
ATOM     12  C9  UNL A   1      33.122  18.528  23.048  1.00  0.00    +0.000 C 
ATOM     88  H3  UNL A   1      31.883  20.169  25.696  1.00  0.00    +0.000 H 
ATOM     89  H4  UNL A   1      32.632  18.156  26.835  1.00  0.00    +0.000 H 
ATOM     92  H7  UNL A   1      33.241  18.611  22.026  1.00  0.00    +0.000 H 
BRANCH    8    9
ATOM      9  O2  UNL A   1      33.828  16.100  25.672  1.00  0.00    +0.000 O 
ATOM     90  H5  UNL A   1      34.433  15.548  25.217  1.00  0.00    +0.000 H 
ENDBRANCH    8    9
BRANCH   10   11
ATOM     11  O3  UNL A   1      34.135  16.381  22.995  1.00  0.00    +0.000 O 
ATOM     91  H6  UNL A   1      34.408  15.595  23.427  1.00  0.00    +0.000 H 
ENDBRANCH   10   11
ENDBRANCH    4    5
ENDBRANCH    3    4
ENDBRANCH    2    3
ENDBRANCH   13    2
ENDBRANCH   14   13
ENDBRANCH   15   14
ENDBRANCH   16   15
ENDBRANCH   17   16
ENDBRANCH   18   17
ENDBRANCH   19   18
ENDBRANCH   20   19
ENDBRANCH   21   20
ENDBRANCH   23   21
ENDBRANCH   27   26
BRANCH   31   32
ATOM     33  C26 UNL A   1      37.862  31.271  29.869  1.00  0.00    +0.000 C 
ATOM     34  F1  UNL A   1      38.011  31.446  28.546  1.00  0.00    +0.000 F 
ATOM     35  C27 UNL A   1      36.671  31.673  30.467  1.00  0.00    +0.000 C 
ATOM     36  F2  UNL A   1      35.704  32.229  29.724  1.00  0.00    +0.000 F 
ATOM     37  C28 UNL A   1      36.490  31.513  31.833  1.00  0.00    +0.000 C 
ATOM     38  F3  UNL A   1      35.342  31.898  32.407  1.00  0.00    +0.000 F 
ATOM     39  C29 UNL A   1      37.503  30.962  32.604  1.00  0.00    +0.000 C 
ATOM     40  F4  UNL A   1      37.324  30.796  33.922  1.00  0.00    +0.000 F 
ATOM     41  C30 UNL A   1      38.707  30.587  32.013  1.00  0.00    +0.000 C 
ATOM     42  F5  UNL A   1      39.674  30.075  32.788  1.00  0.00    +0.000 F 
ATOM     32  C25 UNL A   1      38.912  30.738  30.634  1.00  0.00    +0.000 C 
ENDBRANCH   31   32
BRANCH   48   49
ATOM     49  C36 UNL A   1      45.417  33.549  29.274  1.00  0.00    +0.000 C 
ATOM     50  C37 UNL A   1      45.315  34.618  28.372  1.00  0.00    +0.000 C 
ATOM     51  F6  UNL A   1      44.596  34.484  27.246  1.00  0.00    +0.000 F 
ATOM     52  C38 UNL A   1      45.980  35.818  28.606  1.00  0.00    +0.000 C 
ATOM     53  F7  UNL A   1      45.902  36.812  27.711  1.00  0.00    +0.000 F 
ATOM     54  C39 UNL A   1      46.736  35.982  29.757  1.00  0.00    +0.000 C 
ATOM     55  F8  UNL A   1      47.370  37.140  29.985  1.00  0.00    +0.000 F 
ATOM     56  C40 UNL A   1      46.839  34.943  30.670  1.00  0.00    +0.000 C 
ATOM     57  F9  UNL A   1      47.561  35.103  31.788  1.00  0.00    +0.000 F 
ATOM     58  C41 UNL A   1      46.196  33.732  30.427  1.00  0.00    +0.000 C 
ATOM     59  F10 UNL A   1      46.323  32.742  31.322  1.00  0.00    +0.000 F 
ENDBRANCH   48   49
BRANCH   63   64
ATOM     65  C46 UNL A   1      48.299  27.091  26.721  1.00  0.00    +0.000 C 
ATOM     66  F11 UNL A   1      48.288  27.010  28.059  1.00  0.00    +0.000 F 
ATOM     67  C47 UNL A   1      49.424  26.651  26.026  1.00  0.00    +0.000 C 
ATOM     68  F12 UNL A   1      50.475  26.161  26.699  1.00  0.00    +0.000 F 
ATOM     69  C48 UNL A   1      49.462  26.727  24.642  1.00  0.00    +0.000 C 
ATOM     70  F13 UNL A   1      50.539  26.292  23.974  1.00  0.00    +0.000 F 
ATOM     71  C49 UNL A   1      48.382  27.256  23.951  1.00  0.00    +0.000 C 
ATOM     72  F14 UNL A   1      48.408  27.318  22.613  1.00  0.00    +0.000 F 
ATOM     73  C50 UNL A   1      47.266  27.719  24.646  1.00  0.00    +0.000 C 
ATOM     74  F15 UNL A   1      46.237  28.226  23.953  1.00  0.00    +0.000 F 
ATOM     64  C45 UNL A   1      47.200  27.636  26.044  1.00  0.00    +0.000 C 
ENDBRANCH   63   64
TORSDOF 19
ENDMDL
