MODEL 1
REMARK VINA RESULT:      -7.5      0.000      0.000
ROOT
ATOM    142  H40 UNL A   1      18.422  53.241  -0.745  1.00  0.00    +0.000 H 
ATOM    143  H41 UNL A   1      18.031  50.750  -1.407  1.00  0.00    +0.000 H 
ATOM    144  H42 UNL A   1      15.667  51.609   1.883  1.00  0.00    +0.000 H 
ATOM    145  H43 UNL A   1      11.653  49.662   6.446  1.00  0.00    +0.000 H 
ATOM    146  H44 UNL A   1      11.991  52.107   7.050  1.00  0.00    +0.000 H 
ATOM    147  H45 UNL A   1      14.315  51.291   3.701  1.00  0.00    +0.000 H 
ATOM    148  H46 UNL A   1      13.416  46.485   2.533  1.00  0.00    +0.000 H 
ATOM    149  H47 UNL A   1      15.144  46.750   0.663  1.00  0.00    +0.000 H 
ATOM    150  H48 UNL A   1      16.255  56.469   2.960  1.00  0.00    +0.000 H 
ATOM    151  H49 UNL A   1      14.911  56.112   5.110  1.00  0.00    +0.000 H 
ATOM     38  C31 UNL A   1      13.811  53.494   5.350  1.00  0.00    +0.000 C 
ATOM     39  C32 UNL A   1      14.745  54.004   4.289  1.00  0.00    +0.000 C 
ATOM     40  N4  UNL A   1      15.256  53.372   3.262  1.00  0.00    +0.000 N 
ATOM     41  C33 UNL A   1      16.015  54.313   2.578  1.00  0.00    +0.000 C 
ATOM     42  C34 UNL A   1      16.789  54.139   1.481  1.00  0.00    +0.000 C 
ATOM     54  C41 UNL A   1      16.963  52.880   0.803  1.00  0.00    +0.000 C 
ATOM     55  C42 UNL A   1      17.779  52.585  -0.275  1.00  0.00    +0.000 C 
ATOM     56  C43 UNL A   1      17.580  51.243  -0.620  1.00  0.00    +0.000 C 
ATOM     57  C44 UNL A   1      16.678  50.689   0.273  1.00  0.00    +0.000 C 
ATOM     58  N5  UNL A   1      16.305  51.705   1.139  1.00  0.00    +0.000 N 
ATOM     59  C45 UNL A   1      16.191  49.335   0.335  1.00  0.00    +0.000 C 
ATOM     71  C52 UNL A   1      15.316  48.863   1.257  1.00  0.00    +0.000 C 
ATOM     72  N6  UNL A   1      14.710  49.537   2.308  1.00  0.00    +0.000 N 
ATOM     73  C53 UNL A   1      13.940  48.659   2.903  1.00  0.00    +0.000 C 
ATOM     74  C54 UNL A   1      13.068  48.828   4.117  1.00  0.00    +0.000 C 
ATOM     86  C61 UNL A   1      13.040  50.019   4.745  1.00  0.00    +0.000 C 
ATOM     87  C62 UNL A   1      12.254  50.328   5.936  1.00  0.00    +0.000 C 
ATOM     88  C63 UNL A   1      12.442  51.616   6.261  1.00  0.00    +0.000 C 
ATOM     89  C64 UNL A   1      13.388  52.216   5.319  1.00  0.00    +0.000 C 
ATOM     90  N7  UNL A   1      13.690  51.193   4.456  1.00  0.00    +0.000 N 
ATOM     91  C65 UNL A   1      13.954  47.328   2.279  1.00  0.00    +0.000 C 
ATOM     92  C66 UNL A   1      14.837  47.497   1.306  1.00  0.00    +0.000 C 
ATOM     93  C67 UNL A   1      15.858  55.571   3.278  1.00  0.00    +0.000 C 
ATOM     94  C68 UNL A   1      15.137  55.418   4.379  1.00  0.00    +0.000 C 
ENDROOT
BRANCH   38   37
ATOM     34  C27 UNL A   1      12.234  56.073   8.390  1.00  0.00    +0.000 C 
ATOM     35  C28 UNL A   1      13.417  55.365   8.629  1.00  0.00    +0.000 C 
ATOM     36  C29 UNL A   1      13.952  54.550   7.628  1.00  0.00    +0.000 C 
ATOM     37  C30 UNL A   1      13.292  54.409   6.397  1.00  0.00    +0.000 C 
ATOM    140  H38 UNL A   1      13.891  55.444   9.541  1.00  0.00    +0.000 H 
ATOM    141  H39 UNL A   1      14.839  54.048   7.796  1.00  0.00    +0.000 H 
ATOM    152  H50 UNL A   1      11.623  55.042   5.263  1.00  0.00    +0.000 H 
ATOM    153  H51 UNL A   1      10.803  56.600   6.930  1.00  0.00    +0.000 H 
ATOM     95  C69 UNL A   1      12.120  55.143   6.163  1.00  0.00    +0.000 C 
ATOM     96  C70 UNL A   1      11.622  56.007   7.135  1.00  0.00    +0.000 C 
BRANCH   34   32
ATOM     33  O4  UNL A   1      11.422  58.101   9.242  1.00  0.00    +0.000 O 
ATOM     32  C26 UNL A   1      11.681  56.923   9.469  1.00  0.00    +0.000 C 
BRANCH   32   31
ATOM    139  H37 UNL A   1      12.078  56.693  11.418  1.00  0.00    +0.000 H 
ATOM     31  N3  UNL A   1      11.453  56.400  10.717  1.00  0.00    +0.000 N 
BRANCH   31   30
ATOM    137  H35 UNL A   1      10.219  55.644  12.191  1.00  0.00    +0.000 H 
ATOM    138  H36 UNL A   1       9.546  55.648  10.559  1.00  0.00    +0.000 H 
ATOM     30  C25 UNL A   1      10.419  55.474  11.154  1.00  0.00    +0.000 C 
BRANCH   30   29
ATOM     29  C24 UNL A   1      10.837  54.018  10.965  1.00  0.00    +0.000 C 
ATOM    135  H33 UNL A   1       9.988  53.471  10.613  1.00  0.00    +0.000 H 
ATOM    136  H34 UNL A   1      11.651  54.027  10.270  1.00  0.00    +0.000 H 
BRANCH   29   28
ATOM     28  C23 UNL A   1      11.359  53.329  12.230  1.00  0.00    +0.000 C 
ATOM    133  H31 UNL A   1      10.530  52.852  12.711  1.00  0.00    +0.000 H 
ATOM    134  H32 UNL A   1      12.118  52.651  11.902  1.00  0.00    +0.000 H 
BRANCH   28   27
ATOM     27  C22 UNL A   1      12.034  54.250  13.256  1.00  0.00    +0.000 C 
ATOM    132  H30 UNL A   1      11.631  53.978  14.210  1.00  0.00    +0.000 H 
ATOM    131  H29 UNL A   1      11.826  55.262  12.978  1.00  0.00    +0.000 H 
BRANCH   27   26
ATOM    129  H27 UNL A   1      13.944  54.956  13.869  1.00  0.00    +0.000 H 
ATOM     26  C21 UNL A   1      13.553  54.092  13.373  1.00  0.00    +0.000 C 
ATOM    130  H28 UNL A   1      13.730  53.189  13.919  1.00  0.00    +0.000 H 
BRANCH   26   25
ATOM     25  C20 UNL A   1      14.267  53.945  12.027  1.00  0.00    +0.000 C 
ATOM    127  H25 UNL A   1      13.534  53.896  11.249  1.00  0.00    +0.000 H 
ATOM    128  H26 UNL A   1      14.910  54.791  11.897  1.00  0.00    +0.000 H 
BRANCH   25   24
ATOM    126  H24 UNL A   1      15.586  52.569  12.804  1.00  0.00    +0.000 H 
ATOM     24  N2  UNL A   1      15.083  52.750  11.978  1.00  0.00    +0.000 N 
BRANCH   24   22
ATOM     22  C19 UNL A   1      15.277  51.831  10.992  1.00  0.00    +0.000 C 
ATOM     23  O3  UNL A   1      15.411  52.280   9.847  1.00  0.00    +0.000 O 
BRANCH   22   20
ATOM    122  H20 UNL A   1      15.258  50.195  12.289  1.00  0.00    +0.000 H 
ATOM     20  C17 UNL A   1      15.305  50.312  11.227  1.00  0.00    +0.000 C 
BRANCH   20   19
ATOM     97  C71 UNL A   1      12.795  50.020  11.176  1.00  0.00    +0.000 C 
ATOM     98  C72 UNL A   1      11.613  49.419  10.699  1.00  0.00    +0.000 C 
ATOM     16  C13 UNL A   1      11.651  48.433   9.695  1.00  0.00    +0.000 C 
ATOM     17  C14 UNL A   1      12.925  47.985   9.304  1.00  0.00    +0.000 C 
ATOM     18  C15 UNL A   1      14.098  48.521   9.844  1.00  0.00    +0.000 C 
ATOM     19  C16 UNL A   1      14.058  49.593  10.737  1.00  0.00    +0.000 C 
ATOM    120  H18 UNL A   1      12.997  47.237   8.597  1.00  0.00    +0.000 H 
ATOM    121  H19 UNL A   1      15.009  48.117   9.578  1.00  0.00    +0.000 H 
ATOM    154  H52 UNL A   1      12.731  50.790  11.861  1.00  0.00    +0.000 H 
BRANCH   16   15
ATOM    102  C73 UNL A   1       9.880  48.567   7.915  1.00  0.00    +0.000 C 
ATOM     11  C8  UNL A   1       8.755  48.039   7.278  1.00  0.00    +0.000 C 
ATOM     12  C9  UNL A   1       8.199  46.829   7.680  1.00  0.00    +0.000 C 
ATOM     13  C10 UNL A   1       8.780  46.132   8.734  1.00  0.00    +0.000 C 
ATOM     14  C11 UNL A   1       9.892  46.664   9.394  1.00  0.00    +0.000 C 
ATOM     15  C12 UNL A   1      10.461  47.891   9.002  1.00  0.00    +0.000 C 
ATOM    117  H15 UNL A   1       7.365  46.453   7.203  1.00  0.00    +0.000 H 
ATOM    118  H16 UNL A   1       8.390  45.223   9.029  1.00  0.00    +0.000 H 
ATOM    119  H17 UNL A   1      10.305  46.146  10.185  1.00  0.00    +0.000 H 
ATOM    155  H53 UNL A   1      10.286  49.456   7.587  1.00  0.00    +0.000 H 
BRANCH   11   10
ATOM     10  O2  UNL A   1       8.038  48.773   6.317  1.00  0.00    +0.000 O 
BRANCH   10    8
ATOM      9  O1  UNL A   1       5.793  48.678   5.713  1.00  0.00    +0.000 O 
ATOM      8  C7  UNL A   1       6.681  48.994   6.495  1.00  0.00    +0.000 C 
BRANCH    8    7
ATOM    116  H14 UNL A   1       7.035  50.301   7.984  1.00  0.00    +0.000 H 
ATOM      7  N1  UNL A   1       6.396  49.616   7.680  1.00  0.00    +0.000 N 
BRANCH    7    6
ATOM    114  H12 UNL A   1       4.973  50.287   9.011  1.00  0.00    +0.000 H 
ATOM    115  H13 UNL A   1       4.457  48.994   7.923  1.00  0.00    +0.000 H 
ATOM      6  C6  UNL A   1       5.252  49.370   8.535  1.00  0.00    +0.000 C 
BRANCH    6    5
ATOM    113  H11 UNL A   1       5.485  48.836  10.549  1.00  0.00    +0.000 H 
ATOM      5  C5  UNL A   1       5.550  48.326   9.611  1.00  0.00    +0.000 C 
ATOM    112  H10 UNL A   1       6.519  47.917   9.418  1.00  0.00    +0.000 H 
BRANCH    5    4
ATOM      4  C4  UNL A   1       4.550  47.166   9.682  1.00  0.00    +0.000 C 
ATOM    110  H8  UNL A   1       4.261  47.042  10.703  1.00  0.00    +0.000 H 
ATOM    111  H9  UNL A   1       3.741  47.436   9.035  1.00  0.00    +0.000 H 
BRANCH    4    3
ATOM      3  C3  UNL A   1       5.065  45.817   9.169  1.00  0.00    +0.000 C 
ATOM    108  H6  UNL A   1       4.766  45.716   8.147  1.00  0.00    +0.000 H 
ATOM    109  H7  UNL A   1       6.125  45.834   9.308  1.00  0.00    +0.000 H 
BRANCH    3    2
ATOM      2  C2  UNL A   1       4.560  44.588   9.930  1.00  0.00    +0.000 C 
ATOM    107  H5  UNL A   1       5.404  43.954  10.103  1.00  0.00    +0.000 H 
ATOM    106  H4  UNL A   1       3.808  44.109   9.341  1.00  0.00    +0.000 H 
BRANCH    2    1
ATOM      1  C1  UNL A   1       3.966  44.926  11.290  1.00  0.00    +0.000 C 
ATOM    105  H3  UNL A   1       4.188  44.140  11.980  1.00  0.00    +0.000 H 
ATOM    103  H1  UNL A   1       2.905  45.031  11.198  1.00  0.00    +0.000 H 
ATOM    104  H2  UNL A   1       4.386  45.844  11.645  1.00  0.00    +0.000 H 
ENDBRANCH    2    1
ENDBRANCH    3    2
ENDBRANCH    4    3
ENDBRANCH    5    4
ENDBRANCH    6    5
ENDBRANCH    7    6
ENDBRANCH    8    7
ENDBRANCH   10    8
ENDBRANCH   11   10
ENDBRANCH   16   15
BRANCH   98   99
ATOM     99  N8  UNL A   1      10.368  49.812  11.322  1.00  0.00    +0.000 N 
ATOM    100  O5  UNL A   1       9.958  49.232  12.307  1.00  0.00    +0.000 O 
ATOM    101  O6  UNL A   1       9.545  50.747  10.742  1.00  0.00    +0.000 O 
ENDBRANCH   98   99
ENDBRANCH   20   19
BRANCH   20   21
ATOM    125  H23 UNL A   1      16.660  48.660  11.299  1.00  0.00    +0.000 H 
ATOM    123  H21 UNL A   1      17.442  50.222  11.279  1.00  0.00    +0.000 H 
ATOM    124  H22 UNL A   1      16.736  49.580   9.816  1.00  0.00    +0.000 H 
ATOM     21  C18 UNL A   1      16.635  49.643  10.879  1.00  0.00    +0.000 C 
ENDBRANCH   20   21
ENDBRANCH   22   20
ENDBRANCH   24   22
ENDBRANCH   25   24
ENDBRANCH   26   25
ENDBRANCH   27   26
ENDBRANCH   28   27
ENDBRANCH   29   28
ENDBRANCH   30   29
ENDBRANCH   31   30
ENDBRANCH   32   31
ENDBRANCH   34   32
ENDBRANCH   38   37
BRANCH   42   43
ATOM     43  C35 UNL A   1      17.510  55.342   0.943  1.00  0.00    +0.000 C 
ATOM     44  C36 UNL A   1      18.806  55.673   1.366  1.00  0.00    +0.000 C 
ATOM     45  F1  UNL A   1      19.421  54.933   2.300  1.00  0.00    +0.000 F 
ATOM     46  C37 UNL A   1      19.461  56.793   0.860  1.00  0.00    +0.000 C 
ATOM     47  F2  UNL A   1      20.678  57.120   1.317  1.00  0.00    +0.000 F 
ATOM     48  C38 UNL A   1      18.850  57.582  -0.103  1.00  0.00    +0.000 C 
ATOM     49  F3  UNL A   1      19.483  58.657  -0.591  1.00  0.00    +0.000 F 
ATOM     50  C39 UNL A   1      17.579  57.259  -0.554  1.00  0.00    +0.000 C 
ATOM     51  F4  UNL A   1      16.991  58.012  -1.495  1.00  0.00    +0.000 F 
ATOM     52  C40 UNL A   1      16.909  56.157  -0.028  1.00  0.00    +0.000 C 
ATOM     53  F5  UNL A   1      15.673  55.881  -0.473  1.00  0.00    +0.000 F 
ENDBRANCH   42   43
BRANCH   59   60
ATOM     65  C49 UNL A   1      17.620  46.495  -2.576  1.00  0.00    +0.000 C 
ATOM     66  F8  UNL A   1      18.062  45.615  -3.484  1.00  0.00    +0.000 F 
ATOM     67  C50 UNL A   1      16.346  47.032  -2.690  1.00  0.00    +0.000 C 
ATOM     68  F9  UNL A   1      15.549  46.652  -3.697  1.00  0.00    +0.000 F 
ATOM     69  C51 UNL A   1      15.895  47.964  -1.760  1.00  0.00    +0.000 C 
ATOM     70  F10 UNL A   1      14.664  48.475  -1.904  1.00  0.00    +0.000 F 
ATOM     60  C46 UNL A   1      16.704  48.359  -0.684  1.00  0.00    +0.000 C 
ATOM     61  C47 UNL A   1      17.982  47.789  -0.576  1.00  0.00    +0.000 C 
ATOM     62  F6  UNL A   1      18.798  48.148   0.426  1.00  0.00    +0.000 F 
ATOM     63  C48 UNL A   1      18.440  46.879  -1.524  1.00  0.00    +0.000 C 
ATOM     64  F7  UNL A   1      19.682  46.384  -1.428  1.00  0.00    +0.000 F 
ENDBRANCH   59   60
BRANCH   74   75
ATOM     75  C55 UNL A   1      12.268  47.695   4.647  1.00  0.00    +0.000 C 
ATOM     76  C56 UNL A   1      12.712  46.958   5.753  1.00  0.00    +0.000 C 
ATOM     77  F11 UNL A   1      13.887  47.255   6.326  1.00  0.00    +0.000 F 
ATOM     78  C57 UNL A   1      11.967  45.892   6.253  1.00  0.00    +0.000 C 
ATOM     79  F12 UNL A   1      12.434  45.179   7.287  1.00  0.00    +0.000 F 
ATOM     80  C58 UNL A   1      10.753  45.560   5.674  1.00  0.00    +0.000 C 
ATOM     81  F13 UNL A   1      10.033  44.539   6.159  1.00  0.00    +0.000 F 
ATOM     82  C59 UNL A   1      10.286  46.285   4.588  1.00  0.00    +0.000 C 
ATOM     83  F14 UNL A   1       9.104  45.976   4.035  1.00  0.00    +0.000 F 
ATOM     84  C60 UNL A   1      11.042  47.334   4.070  1.00  0.00    +0.000 C 
ATOM     85  F15 UNL A   1      10.571  48.013   3.014  1.00  0.00    +0.000 F 
ENDBRANCH   74   75
TORSDOF 28
ENDMDL
MODEL 2
REMARK VINA RESULT:      -7.4     25.360     30.365
ROOT
ATOM    142  H40 UNL A   1      25.707  18.338   4.456  1.00  0.00    +0.000 H 
ATOM    143  H41 UNL A   1      24.796  17.116   6.571  1.00  0.00    +0.000 H 
ATOM    144  H42 UNL A   1      21.626  19.007   4.694  1.00  0.00    +0.000 H 
ATOM    145  H43 UNL A   1      15.472  20.696   4.624  1.00  0.00    +0.000 H 
ATOM    146  H44 UNL A   1      16.355  21.834   2.531  1.00  0.00    +0.000 H 
ATOM    147  H45 UNL A   1      19.540  19.882   4.354  1.00  0.00    +0.000 H 
ATOM    148  H46 UNL A   1      17.615  17.551   8.372  1.00  0.00    +0.000 H 
ATOM    149  H47 UNL A   1      19.999  16.798   8.917  1.00  0.00    +0.000 H 
ATOM    150  H48 UNL A   1      23.376  21.122   0.499  1.00  0.00    +0.000 H 
ATOM    151  H49 UNL A   1      21.114  22.280   0.189  1.00  0.00    +0.000 H 
ATOM     38  C31 UNL A   1      19.149  21.481   2.092  1.00  0.00    +0.000 C 
ATOM     39  C32 UNL A   1      20.602  21.099   2.057  1.00  0.00    +0.000 C 
ATOM     40  N4  UNL A   1      21.279  20.334   2.877  1.00  0.00    +0.000 N 
ATOM     41  C33 UNL A   1      22.567  20.277   2.365  1.00  0.00    +0.000 C 
ATOM     42  C34 UNL A   1      23.657  19.660   2.884  1.00  0.00    +0.000 C 
ATOM     54  C41 UNL A   1      23.658  18.921   4.120  1.00  0.00    +0.000 C 
ATOM     55  C42 UNL A   1      24.723  18.318   4.765  1.00  0.00    +0.000 C 
ATOM     56  C43 UNL A   1      24.236  17.677   5.910  1.00  0.00    +0.000 C 
ATOM     57  C44 UNL A   1      22.876  17.920   6.004  1.00  0.00    +0.000 C 
ATOM     58  N5  UNL A   1      22.533  18.682   4.898  1.00  0.00    +0.000 N 
ATOM     59  C45 UNL A   1      21.955  17.491   7.024  1.00  0.00    +0.000 C 
ATOM     71  C52 UNL A   1      20.632  17.788   7.055  1.00  0.00    +0.000 C 
ATOM     72  N6  UNL A   1      19.886  18.537   6.155  1.00  0.00    +0.000 N 
ATOM     73  C53 UNL A   1      18.656  18.524   6.609  1.00  0.00    +0.000 C 
ATOM     74  C54 UNL A   1      17.431  19.194   6.050  1.00  0.00    +0.000 C 
ATOM     86  C61 UNL A   1      17.543  19.946   4.938  1.00  0.00    +0.000 C 
ATOM     87  C62 UNL A   1      16.449  20.663   4.290  1.00  0.00    +0.000 C 
ATOM     88  C63 UNL A   1      16.917  21.273   3.190  1.00  0.00    +0.000 C 
ATOM     89  C64 UNL A   1      18.353  21.016   3.074  1.00  0.00    +0.000 C 
ATOM     90  N7  UNL A   1      18.637  20.221   4.157  1.00  0.00    +0.000 N 
ATOM     91  C65 UNL A   1      18.478  17.743   7.841  1.00  0.00    +0.000 C 
ATOM     92  C66 UNL A   1      19.719  17.349   8.090  1.00  0.00    +0.000 C 
ATOM     93  C67 UNL A   1      22.568  21.042   1.137  1.00  0.00    +0.000 C 
ATOM     94  C68 UNL A   1      21.395  21.625   0.936  1.00  0.00    +0.000 C 
ENDROOT
BRANCH   38   37
ATOM     34  C27 UNL A   1      17.366  23.855  -1.000  1.00  0.00    +0.000 C 
ATOM     35  C28 UNL A   1      18.002  24.484   0.075  1.00  0.00    +0.000 C 
ATOM     36  C29 UNL A   1      18.614  23.714   1.068  1.00  0.00    +0.000 C 
ATOM     37  C30 UNL A   1      18.564  22.312   1.011  1.00  0.00    +0.000 C 
ATOM    140  H38 UNL A   1      18.019  25.513   0.136  1.00  0.00    +0.000 H 
ATOM    141  H39 UNL A   1      19.106  24.179   1.847  1.00  0.00    +0.000 H 
ATOM    152  H50 UNL A   1      17.895  20.664  -0.132  1.00  0.00    +0.000 H 
ATOM    153  H51 UNL A   1      17.003  22.003  -1.946  1.00  0.00    +0.000 H 
ATOM     95  C69 UNL A   1      17.943  21.694  -0.085  1.00  0.00    +0.000 C 
ATOM     96  C70 UNL A   1      17.392  22.462  -1.108  1.00  0.00    +0.000 C 
BRANCH   34   32
ATOM     33  O4  UNL A   1      17.399  25.438  -2.729  1.00  0.00    +0.000 O 
ATOM     32  C26 UNL A   1      16.716  24.692  -2.033  1.00  0.00    +0.000 C 
BRANCH   32   31
ATOM    139  H37 UNL A   1      15.066  24.253  -3.079  1.00  0.00    +0.000 H 
ATOM     31  N3  UNL A   1      15.358  24.636  -2.221  1.00  0.00    +0.000 N 
BRANCH   31   30
ATOM    137  H35 UNL A   1      13.421  24.462  -1.525  1.00  0.00    +0.000 H 
ATOM    138  H36 UNL A   1      14.624  24.944  -0.326  1.00  0.00    +0.000 H 
ATOM     30  C25 UNL A   1      14.286  25.063  -1.335  1.00  0.00    +0.000 C 
BRANCH   30   29
ATOM     29  C24 UNL A   1      13.922  26.531  -1.542  1.00  0.00    +0.000 C 
ATOM    135  H33 UNL A   1      14.823  27.107  -1.494  1.00  0.00    +0.000 H 
ATOM    136  H34 UNL A   1      13.433  26.589  -2.492  1.00  0.00    +0.000 H 
BRANCH   29   28
ATOM     28  C23 UNL A   1      12.937  27.100  -0.515  1.00  0.00    +0.000 C 
ATOM    133  H31 UNL A   1      11.947  26.854  -0.837  1.00  0.00    +0.000 H 
ATOM    134  H32 UNL A   1      13.208  26.665   0.423  1.00  0.00    +0.000 H 
BRANCH   28   27
ATOM     27  C22 UNL A   1      13.001  28.620  -0.307  1.00  0.00    +0.000 C 
ATOM    132  H30 UNL A   1      13.777  28.790   0.410  1.00  0.00    +0.000 H 
ATOM    131  H29 UNL A   1      12.037  28.950   0.021  1.00  0.00    +0.000 H 
BRANCH   27   26
ATOM    129  H27 UNL A   1      14.394  29.191  -1.810  1.00  0.00    +0.000 H 
ATOM     26  C21 UNL A   1      13.384  29.432  -1.549  1.00  0.00    +0.000 C 
ATOM    130  H28 UNL A   1      12.687  29.170  -2.318  1.00  0.00    +0.000 H 
BRANCH   26   25
ATOM     25  C20 UNL A   1      13.284  30.947  -1.355  1.00  0.00    +0.000 C 
ATOM    127  H25 UNL A   1      13.648  31.197  -0.380  1.00  0.00    +0.000 H 
ATOM    128  H26 UNL A   1      13.870  31.419  -2.117  1.00  0.00    +0.000 H 
BRANCH   25   24
ATOM    126  H24 UNL A   1      11.338  30.833  -2.017  1.00  0.00    +0.000 H 
ATOM     24  N2  UNL A   1      11.920  31.418  -1.480  1.00  0.00    +0.000 N 
BRANCH   24   22
ATOM     22  C19 UNL A   1      11.300  32.524  -0.986  1.00  0.00    +0.000 C 
ATOM     23  O3  UNL A   1      10.908  33.348  -1.822  1.00  0.00    +0.000 O 
BRANCH   22   20
ATOM    122  H20 UNL A   1      10.155  33.296   0.581  1.00  0.00    +0.000 H 
ATOM     20  C17 UNL A   1      11.101  32.800   0.513  1.00  0.00    +0.000 C 
BRANCH   20   19
ATOM     97  C71 UNL A   1       9.745  30.768   1.161  1.00  0.00    +0.000 C 
ATOM     98  C72 UNL A   1       9.551  29.565   1.870  1.00  0.00    +0.000 C 
ATOM     16  C13 UNL A   1      10.550  29.050   2.718  1.00  0.00    +0.000 C 
ATOM     17  C14 UNL A   1      11.676  29.863   2.927  1.00  0.00    +0.000 C 
ATOM     18  C15 UNL A   1      11.827  31.100   2.290  1.00  0.00    +0.000 C 
ATOM     19  C16 UNL A   1      10.900  31.543   1.346  1.00  0.00    +0.000 C 
ATOM    120  H18 UNL A   1      12.416  29.539   3.569  1.00  0.00    +0.000 H 
ATOM    121  H19 UNL A   1      12.637  31.695   2.523  1.00  0.00    +0.000 H 
ATOM    154  H52 UNL A   1       9.024  31.084   0.494  1.00  0.00    +0.000 H 
BRANCH   16   15
ATOM    102  C73 UNL A   1       9.891  27.505   4.589  1.00  0.00    +0.000 C 
ATOM     11  C8  UNL A   1       9.870  26.233   5.164  1.00  0.00    +0.000 C 
ATOM     12  C9  UNL A   1      10.435  25.138   4.517  1.00  0.00    +0.000 C 
ATOM     13  C10 UNL A   1      11.027  25.318   3.272  1.00  0.00    +0.000 C 
ATOM     14  C11 UNL A   1      11.074  26.593   2.698  1.00  0.00    +0.000 C 
ATOM     15  C12 UNL A   1      10.512  27.710   3.345  1.00  0.00    +0.000 C 
ATOM    117  H15 UNL A   1      10.416  24.205   4.956  1.00  0.00    +0.000 H 
ATOM    118  H16 UNL A   1      11.431  24.511   2.771  1.00  0.00    +0.000 H 
ATOM    119  H17 UNL A   1      11.530  26.716   1.781  1.00  0.00    +0.000 H 
ATOM    155  H53 UNL A   1       9.449  28.297   5.079  1.00  0.00    +0.000 H 
BRANCH   11   10
ATOM     10  O2  UNL A   1       9.428  26.025   6.483  1.00  0.00    +0.000 O 
BRANCH   10    8
ATOM      9  O1  UNL A   1       9.781  24.085   7.716  1.00  0.00    +0.000 O 
ATOM      8  C7  UNL A   1      10.144  25.185   7.322  1.00  0.00    +0.000 C 
BRANCH    8    7
ATOM    116  H14 UNL A   1      11.440  26.687   7.660  1.00  0.00    +0.000 H 
ATOM      7  N1  UNL A   1      11.356  25.707   7.686  1.00  0.00    +0.000 N 
BRANCH    7    6
ATOM    114  H12 UNL A   1      13.071  25.549   8.818  1.00  0.00    +0.000 H 
ATOM    115  H13 UNL A   1      12.199  24.040   8.531  1.00  0.00    +0.000 H 
ATOM      6  C6  UNL A   1      12.528  24.964   8.104  1.00  0.00    +0.000 C 
BRANCH    6    5
ATOM    113  H11 UNL A   1      14.353  25.191   7.095  1.00  0.00    +0.000 H 
ATOM      5  C5  UNL A   1      13.452  24.637   6.930  1.00  0.00    +0.000 C 
ATOM    112  H10 UNL A   1      12.948  24.906   6.026  1.00  0.00    +0.000 H 
BRANCH    5    4
ATOM      4  C4  UNL A   1      13.866  23.165   6.824  1.00  0.00    +0.000 C 
ATOM    110  H8  UNL A   1      14.923  23.130   6.667  1.00  0.00    +0.000 H 
ATOM    111  H9  UNL A   1      13.551  22.705   7.738  1.00  0.00    +0.000 H 
BRANCH    4    3
ATOM      3  C3  UNL A   1      13.194  22.369   5.700  1.00  0.00    +0.000 C 
ATOM    108  H6  UNL A   1      13.457  21.340   5.821  1.00  0.00    +0.000 H 
ATOM    109  H7  UNL A   1      12.146  22.560   5.790  1.00  0.00    +0.000 H 
BRANCH    3    2
ATOM      2  C2  UNL A   1      13.578  22.789   4.279  1.00  0.00    +0.000 C 
ATOM    107  H5  UNL A   1      14.619  22.576   4.155  1.00  0.00    +0.000 H 
ATOM    106  H4  UNL A   1      13.362  23.830   4.162  1.00  0.00    +0.000 H 
BRANCH    2    1
ATOM      1  C1  UNL A   1      12.829  22.018   3.201  1.00  0.00    +0.000 C 
ATOM    105  H3  UNL A   1      11.943  21.589   3.620  1.00  0.00    +0.000 H 
ATOM    103  H1  UNL A   1      13.456  21.238   2.821  1.00  0.00    +0.000 H 
ATOM    104  H2  UNL A   1      12.564  22.682   2.406  1.00  0.00    +0.000 H 
ENDBRANCH    2    1
ENDBRANCH    3    2
ENDBRANCH    4    3
ENDBRANCH    5    4
ENDBRANCH    6    5
ENDBRANCH    7    6
ENDBRANCH    8    7
ENDBRANCH   10    8
ENDBRANCH   11   10
ENDBRANCH   16   15
BRANCH   98   99
ATOM     99  N8  UNL A   1       8.266  28.915   1.738  1.00  0.00    +0.000 N 
ATOM    100  O5  UNL A   1       7.357  29.178   2.500  1.00  0.00    +0.000 O 
ATOM    101  O6  UNL A   1       8.076  27.884   0.849  1.00  0.00    +0.000 O 
ENDBRANCH   98   99
ENDBRANCH   20   19
BRANCH   20   21
ATOM    125  H23 UNL A   1      12.225  34.614   0.382  1.00  0.00    +0.000 H 
ATOM    123  H21 UNL A   1      12.992  33.367   1.336  1.00  0.00    +0.000 H 
ATOM    124  H22 UNL A   1      11.635  34.255   1.987  1.00  0.00    +0.000 H 
ATOM     21  C18 UNL A   1      12.060  33.837   1.098  1.00  0.00    +0.000 C 
ENDBRANCH   20   21
ENDBRANCH   22   20
ENDBRANCH   24   22
ENDBRANCH   25   24
ENDBRANCH   26   25
ENDBRANCH   27   26
ENDBRANCH   28   27
ENDBRANCH   29   28
ENDBRANCH   30   29
ENDBRANCH   31   30
ENDBRANCH   32   31
ENDBRANCH   34   32
ENDBRANCH   38   37
BRANCH   42   43
ATOM     43  C35 UNL A   1      24.942  19.760   2.114  1.00  0.00    +0.000 C 
ATOM     44  C36 UNL A   1      25.130  19.074   0.904  1.00  0.00    +0.000 C 
ATOM     45  F1  UNL A   1      24.166  18.274   0.425  1.00  0.00    +0.000 F 
ATOM     46  C37 UNL A   1      26.328  19.174   0.202  1.00  0.00    +0.000 C 
ATOM     47  F2  UNL A   1      26.504  18.469  -0.925  1.00  0.00    +0.000 F 
ATOM     48  C38 UNL A   1      27.347  19.988   0.674  1.00  0.00    +0.000 C 
ATOM     49  F3  UNL A   1      28.497  20.087  -0.005  1.00  0.00    +0.000 F 
ATOM     50  C39 UNL A   1      27.173  20.696   1.855  1.00  0.00    +0.000 C 
ATOM     51  F4  UNL A   1      28.151  21.494   2.306  1.00  0.00    +0.000 F 
ATOM     52  C40 UNL A   1      25.987  20.574   2.575  1.00  0.00    +0.000 C 
ATOM     53  F5  UNL A   1      25.858  21.258   3.722  1.00  0.00    +0.000 F 
ENDBRANCH   42   43
BRANCH   59   60
ATOM     65  C49 UNL A   1      23.565  15.165  10.277  1.00  0.00    +0.000 C 
ATOM     66  F8  UNL A   1      24.064  14.446  11.291  1.00  0.00    +0.000 F 
ATOM     67  C50 UNL A   1      23.431  16.540  10.400  1.00  0.00    +0.000 C 
ATOM     68  F9  UNL A   1      23.821  17.152  11.526  1.00  0.00    +0.000 F 
ATOM     69  C51 UNL A   1      22.892  17.286   9.355  1.00  0.00    +0.000 C 
ATOM     70  F10 UNL A   1      22.762  18.611   9.509  1.00  0.00    +0.000 F 
ATOM     60  C46 UNL A   1      22.498  16.670   8.158  1.00  0.00    +0.000 C 
ATOM     61  C47 UNL A   1      22.660  15.281   8.047  1.00  0.00    +0.000 C 
ATOM     62  F6  UNL A   1      22.283  14.644   6.928  1.00  0.00    +0.000 F 
ATOM     63  C48 UNL A   1      23.174  14.535   9.105  1.00  0.00    +0.000 C 
ATOM     64  F7  UNL A   1      23.276  13.203   8.994  1.00  0.00    +0.000 F 
ENDBRANCH   59   60
BRANCH   74   75
ATOM     75  C55 UNL A   1      16.114  19.064   6.723  1.00  0.00    +0.000 C 
ATOM     76  C56 UNL A   1      15.696  20.008   7.672  1.00  0.00    +0.000 C 
ATOM     77  F11 UNL A   1      16.502  21.027   8.001  1.00  0.00    +0.000 F 
ATOM     78  C57 UNL A   1      14.463  19.889   8.310  1.00  0.00    +0.000 C 
ATOM     79  F12 UNL A   1      14.105  20.784   9.241  1.00  0.00    +0.000 F 
ATOM     80  C58 UNL A   1      13.614  18.840   7.993  1.00  0.00    +0.000 C 
ATOM     81  F13 UNL A   1      12.425  18.730   8.601  1.00  0.00    +0.000 F 
ATOM     82  C59 UNL A   1      14.000  17.902   7.047  1.00  0.00    +0.000 C 
ATOM     83  F14 UNL A   1      13.175  16.895   6.727  1.00  0.00    +0.000 F 
ATOM     84  C60 UNL A   1      15.244  18.004   6.428  1.00  0.00    +0.000 C 
ATOM     85  F15 UNL A   1      15.596  17.079   5.523  1.00  0.00    +0.000 F 
ENDBRANCH   74   75
TORSDOF 28
ENDMDL
MODEL 3
REMARK VINA RESULT:      -7.3      1.073      2.405
ROOT
ATOM    142  H40 UNL A   1      18.385  53.210  -0.850  1.00  0.00    +0.000 H 
ATOM    143  H41 UNL A   1      17.981  50.703  -1.443  1.00  0.00    +0.000 H 
ATOM    144  H42 UNL A   1      15.625  51.663   1.825  1.00  0.00    +0.000 H 
ATOM    145  H43 UNL A   1      11.607  49.862   6.444  1.00  0.00    +0.000 H 
ATOM    146  H44 UNL A   1      11.958  52.320   6.980  1.00  0.00    +0.000 H 
ATOM    147  H45 UNL A   1      14.274  51.402   3.652  1.00  0.00    +0.000 H 
ATOM    148  H46 UNL A   1      13.351  46.570   2.617  1.00  0.00    +0.000 H 
ATOM    149  H47 UNL A   1      15.077  46.776   0.738  1.00  0.00    +0.000 H 
ATOM    150  H48 UNL A   1      16.237  56.548   2.767  1.00  0.00    +0.000 H 
ATOM    151  H49 UNL A   1      14.894  56.257   4.927  1.00  0.00    +0.000 H 
ATOM     38  C31 UNL A   1      13.782  53.652   5.240  1.00  0.00    +0.000 C 
ATOM     39  C32 UNL A   1      14.717  54.128   4.165  1.00  0.00    +0.000 C 
ATOM     40  N4  UNL A   1      15.224  53.466   3.155  1.00  0.00    +0.000 N 
ATOM     41  C33 UNL A   1      15.986  54.384   2.445  1.00  0.00    +0.000 C 
ATOM     42  C34 UNL A   1      16.759  54.176   1.352  1.00  0.00    +0.000 C 
ATOM     54  C41 UNL A   1      16.926  52.898   0.708  1.00  0.00    +0.000 C 
ATOM     55  C42 UNL A   1      17.739  52.570  -0.362  1.00  0.00    +0.000 C 
ATOM     56  C43 UNL A   1      17.534  51.220  -0.669  1.00  0.00    +0.000 C 
ATOM     57  C44 UNL A   1      16.630  50.695   0.239  1.00  0.00    +0.000 C 
ATOM     58  N5  UNL A   1      16.263  51.737   1.077  1.00  0.00    +0.000 N 
ATOM     59  C45 UNL A   1      16.136  49.346   0.338  1.00  0.00    +0.000 C 
ATOM     71  C52 UNL A   1      15.260  48.904   1.274  1.00  0.00    +0.000 C 
ATOM     72  N6  UNL A   1      14.659  49.609   2.308  1.00  0.00    +0.000 N 
ATOM     73  C53 UNL A   1      13.886  48.750   2.927  1.00  0.00    +0.000 C 
ATOM     74  C54 UNL A   1      13.016  48.957   4.137  1.00  0.00    +0.000 C 
ATOM     86  C61 UNL A   1      12.994  50.165   4.731  1.00  0.00    +0.000 C 
ATOM     87  C62 UNL A   1      12.211  50.510   5.914  1.00  0.00    +0.000 C 
ATOM     88  C63 UNL A   1      12.405  51.806   6.204  1.00  0.00    +0.000 C 
ATOM     89  C64 UNL A   1      13.353  52.375   5.245  1.00  0.00    +0.000 C 
ATOM     90  N7  UNL A   1      13.650  51.328   4.410  1.00  0.00    +0.000 N 
ATOM     91  C65 UNL A   1      13.892  47.404   2.339  1.00  0.00    +0.000 C 
ATOM     92  C66 UNL A   1      14.775  47.542   1.361  1.00  0.00    +0.000 C 
ATOM     93  C67 UNL A   1      15.836  55.661   3.110  1.00  0.00    +0.000 C 
ATOM     94  C68 UNL A   1      15.116  55.542   4.216  1.00  0.00    +0.000 C 
ENDROOT
BRANCH   38   37
ATOM     34  C27 UNL A   1      12.221  56.320   8.211  1.00  0.00    +0.000 C 
ATOM     35  C28 UNL A   1      13.404  55.618   8.465  1.00  0.00    +0.000 C 
ATOM     36  C29 UNL A   1      13.935  54.773   7.486  1.00  0.00    +0.000 C 
ATOM     37  C30 UNL A   1      13.269  54.598   6.263  1.00  0.00    +0.000 C 
ATOM    140  H38 UNL A   1      13.883  55.723   9.372  1.00  0.00    +0.000 H 
ATOM    141  H39 UNL A   1      14.821  54.276   7.664  1.00  0.00    +0.000 H 
ATOM    152  H50 UNL A   1      11.595  55.199   5.118  1.00  0.00    +0.000 H 
ATOM    153  H51 UNL A   1      10.784  56.806   6.742  1.00  0.00    +0.000 H 
ATOM     95  C69 UNL A   1      12.096  55.326   6.012  1.00  0.00    +0.000 C 
ATOM     96  C70 UNL A   1      11.604  56.218   6.961  1.00  0.00    +0.000 C 
BRANCH   34   32
ATOM     33  O4  UNL A   1      11.334  58.348   8.986  1.00  0.00    +0.000 O 
ATOM     32  C26 UNL A   1      11.674  57.202   9.267  1.00  0.00    +0.000 C 
BRANCH   32   31
ATOM    139  H37 UNL A   1      12.258  57.006  11.172  1.00  0.00    +0.000 H 
ATOM     31  N3  UNL A   1      11.539  56.744  10.553  1.00  0.00    +0.000 N 
BRANCH   31   30
ATOM    137  H35 UNL A   1      10.475  56.079  12.194  1.00  0.00    +0.000 H 
ATOM    138  H36 UNL A   1       9.556  56.218  10.693  1.00  0.00    +0.000 H 
ATOM     30  C25 UNL A   1      10.486  55.925  11.135  1.00  0.00    +0.000 C 
BRANCH   30   29
ATOM     29  C24 UNL A   1      10.696  54.439  10.855  1.00  0.00    +0.000 C 
ATOM    135  H33 UNL A   1       9.753  54.017  10.575  1.00  0.00    +0.000 H 
ATOM    136  H34 UNL A   1      11.432  54.380  10.081  1.00  0.00    +0.000 H 
BRANCH   29   28
ATOM     28  C23 UNL A   1      11.248  53.633  12.036  1.00  0.00    +0.000 C 
ATOM    133  H31 UNL A   1      10.423  53.157  12.524  1.00  0.00    +0.000 H 
ATOM    134  H32 UNL A   1      11.957  52.951  11.619  1.00  0.00    +0.000 H 
BRANCH   28   27
ATOM     27  C22 UNL A   1      12.015  54.444  13.090  1.00  0.00    +0.000 C 
ATOM    132  H30 UNL A   1      11.562  54.210  14.032  1.00  0.00    +0.000 H 
ATOM    131  H29 UNL A   1      11.943  55.479  12.828  1.00  0.00    +0.000 H 
BRANCH   27   26
ATOM    129  H27 UNL A   1      13.971  54.848  13.821  1.00  0.00    +0.000 H 
ATOM     26  C21 UNL A   1      13.499  54.090  13.230  1.00  0.00    +0.000 C 
ATOM    130  H28 UNL A   1      13.546  53.124  13.688  1.00  0.00    +0.000 H 
BRANCH   26   25
ATOM     25  C20 UNL A   1      14.241  53.987  11.895  1.00  0.00    +0.000 C 
ATOM    127  H25 UNL A   1      13.527  54.009  11.099  1.00  0.00    +0.000 H 
ATOM    128  H26 UNL A   1      14.919  54.813  11.827  1.00  0.00    +0.000 H 
BRANCH   25   24
ATOM    126  H24 UNL A   1      15.548  52.562  12.600  1.00  0.00    +0.000 H 
ATOM     24  N2  UNL A   1      15.011  52.764  11.800  1.00  0.00    +0.000 N 
BRANCH   24   22
ATOM     22  C19 UNL A   1      15.123  51.845  10.802  1.00  0.00    +0.000 C 
ATOM     23  O3  UNL A   1      15.224  52.296   9.655  1.00  0.00    +0.000 O 
BRANCH   22   20
ATOM    122  H20 UNL A   1      15.090  50.202  12.091  1.00  0.00    +0.000 H 
ATOM     20  C17 UNL A   1      15.098  50.325  11.029  1.00  0.00    +0.000 C 
BRANCH   20   19
ATOM     97  C71 UNL A   1      12.574  50.242  10.934  1.00  0.00    +0.000 C 
ATOM     98  C72 UNL A   1      11.354  49.690  10.494  1.00  0.00    +0.000 C 
ATOM     16  C13 UNL A   1      11.327  48.592   9.613  1.00  0.00    +0.000 C 
ATOM     17  C14 UNL A   1      12.564  47.994   9.317  1.00  0.00    +0.000 C 
ATOM     18  C15 UNL A   1      13.768  48.491   9.827  1.00  0.00    +0.000 C 
ATOM     19  C16 UNL A   1      13.803  49.660  10.587  1.00  0.00    +0.000 C 
ATOM    120  H18 UNL A   1      12.585  47.164   8.705  1.00  0.00    +0.000 H 
ATOM    121  H19 UNL A   1      14.646  47.982   9.639  1.00  0.00    +0.000 H 
ATOM    154  H52 UNL A   1      12.563  51.090  11.522  1.00  0.00    +0.000 H 
BRANCH   16   15
ATOM    102  C73 UNL A   1       9.610  48.664   7.778  1.00  0.00    +0.000 C 
ATOM     11  C8  UNL A   1       8.457  48.161   7.172  1.00  0.00    +0.000 C 
ATOM     12  C9  UNL A   1       7.790  47.056   7.693  1.00  0.00    +0.000 C 
ATOM     13  C10 UNL A   1       8.288  46.441   8.837  1.00  0.00    +0.000 C 
ATOM     14  C11 UNL A   1       9.428  46.952   9.464  1.00  0.00    +0.000 C 
ATOM     15  C12 UNL A   1      10.109  48.073   8.952  1.00  0.00    +0.000 C 
ATOM    117  H15 UNL A   1       6.937  46.698   7.237  1.00  0.00    +0.000 H 
ATOM    118  H16 UNL A   1       7.816  45.608   9.222  1.00  0.00    +0.000 H 
ATOM    119  H17 UNL A   1       9.779  46.497  10.321  1.00  0.00    +0.000 H 
ATOM    155  H53 UNL A   1      10.097  49.472   7.362  1.00  0.00    +0.000 H 
BRANCH   11   10
ATOM     10  O2  UNL A   1       7.824  48.835   6.112  1.00  0.00    +0.000 O 
BRANCH   10    8
ATOM      9  O1  UNL A   1       6.669  50.333   7.465  1.00  0.00    +0.000 O 
ATOM      8  C7  UNL A   1       6.854  49.786   6.386  1.00  0.00    +0.000 C 
BRANCH    8    7
ATOM    116  H14 UNL A   1       5.962  49.372   4.629  1.00  0.00    +0.000 H 
ATOM      7  N1  UNL A   1       6.086  50.088   5.294  1.00  0.00    +0.000 N 
BRANCH    7    6
ATOM    114  H12 UNL A   1       4.410  51.170   4.774  1.00  0.00    +0.000 H 
ATOM    115  H13 UNL A   1       5.525  51.970   5.886  1.00  0.00    +0.000 H 
ATOM      6  C6  UNL A   1       5.437  51.354   5.015  1.00  0.00    +0.000 C 
BRANCH    6    5
ATOM    113  H11 UNL A   1       5.440  52.904   3.603  1.00  0.00    +0.000 H 
ATOM      5  C5  UNL A   1       6.092  52.093   3.848  1.00  0.00    +0.000 C 
ATOM    112  H10 UNL A   1       6.224  51.398   3.046  1.00  0.00    +0.000 H 
BRANCH    5    4
ATOM      4  C4  UNL A   1       7.456  52.719   4.164  1.00  0.00    +0.000 C 
ATOM    110  H8  UNL A   1       8.069  51.965   4.610  1.00  0.00    +0.000 H 
ATOM    111  H9  UNL A   1       7.834  53.086   3.233  1.00  0.00    +0.000 H 
BRANCH    4    3
ATOM      3  C3  UNL A   1       7.426  53.924   5.110  1.00  0.00    +0.000 C 
ATOM    108  H6  UNL A   1       7.235  54.798   4.525  1.00  0.00    +0.000 H 
ATOM    109  H7  UNL A   1       6.666  53.713   5.832  1.00  0.00    +0.000 H 
BRANCH    3    2
ATOM      2  C2  UNL A   1       8.710  54.164   5.909  1.00  0.00    +0.000 C 
ATOM    107  H5  UNL A   1       8.602  55.104   6.408  1.00  0.00    +0.000 H 
ATOM    106  H4  UNL A   1       9.538  54.160   5.231  1.00  0.00    +0.000 H 
BRANCH    2    1
ATOM      1  C1  UNL A   1       8.958  53.112   6.979  1.00  0.00    +0.000 C 
ATOM    105  H3  UNL A   1       9.419  53.570   7.829  1.00  0.00    +0.000 H 
ATOM    103  H1  UNL A   1       9.604  52.353   6.590  1.00  0.00    +0.000 H 
ATOM    104  H2  UNL A   1       8.027  52.672   7.270  1.00  0.00    +0.000 H 
ENDBRANCH    2    1
ENDBRANCH    3    2
ENDBRANCH    4    3
ENDBRANCH    5    4
ENDBRANCH    6    5
ENDBRANCH    7    6
ENDBRANCH    8    7
ENDBRANCH   10    8
ENDBRANCH   11   10
ENDBRANCH   16   15
BRANCH   98   99
ATOM     99  N8  UNL A   1      10.136  50.257  11.027  1.00  0.00    +0.000 N 
ATOM    100  O5  UNL A   1       9.682  49.869  12.085  1.00  0.00    +0.000 O 
ATOM    101  O6  UNL A   1       9.381  51.142  10.295  1.00  0.00    +0.000 O 
ENDBRANCH   98   99
ENDBRANCH   20   19
BRANCH   20   21
ATOM    125  H23 UNL A   1      16.386  48.618  11.036  1.00  0.00    +0.000 H 
ATOM    123  H21 UNL A   1      17.230  50.148  10.992  1.00  0.00    +0.000 H 
ATOM    124  H22 UNL A   1      16.438  49.544   9.556  1.00  0.00    +0.000 H 
ATOM     21  C18 UNL A   1      16.384  49.604  10.623  1.00  0.00    +0.000 C 
ENDBRANCH   20   21
ENDBRANCH   22   20
ENDBRANCH   24   22
ENDBRANCH   25   24
ENDBRANCH   26   25
ENDBRANCH   27   26
ENDBRANCH   28   27
ENDBRANCH   29   28
ENDBRANCH   30   29
ENDBRANCH   31   30
ENDBRANCH   32   31
ENDBRANCH   34   32
ENDBRANCH   38   37
BRANCH   42   43
ATOM     43  C35 UNL A   1      17.484  55.360   0.781  1.00  0.00    +0.000 C 
ATOM     44  C36 UNL A   1      18.766  55.723   1.224  1.00  0.00    +0.000 C 
ATOM     45  F1  UNL A   1      19.360  55.031   2.208  1.00  0.00    +0.000 F 
ATOM     46  C37 UNL A   1      19.425  56.825   0.687  1.00  0.00    +0.000 C 
ATOM     47  F2  UNL A   1      20.626  57.183   1.163  1.00  0.00    +0.000 F 
ATOM     48  C38 UNL A   1      18.835  57.564  -0.328  1.00  0.00    +0.000 C 
ATOM     49  F3  UNL A   1      19.473  58.622  -0.846  1.00  0.00    +0.000 F 
ATOM     50  C39 UNL A   1      17.580  57.209  -0.799  1.00  0.00    +0.000 C 
ATOM     51  F4  UNL A   1      17.013  57.913  -1.789  1.00  0.00    +0.000 F 
ATOM     52  C40 UNL A   1      16.905  56.125  -0.243  1.00  0.00    +0.000 C 
ATOM     53  F5  UNL A   1      15.684  55.818  -0.709  1.00  0.00    +0.000 F 
ENDBRANCH   42   43
BRANCH   59   60
ATOM     65  C49 UNL A   1      17.640  46.493  -2.521  1.00  0.00    +0.000 C 
ATOM     66  F8  UNL A   1      18.110  45.604  -3.407  1.00  0.00    +0.000 F 
ATOM     67  C50 UNL A   1      18.414  46.865  -1.433  1.00  0.00    +0.000 C 
ATOM     68  F9  UNL A   1      19.642  46.352  -1.278  1.00  0.00    +0.000 F 
ATOM     69  C51 UNL A   1      17.918  47.772  -0.500  1.00  0.00    +0.000 C 
ATOM     70  F10 UNL A   1      18.684  48.102   0.549  1.00  0.00    +0.000 F 
ATOM     60  C46 UNL A   1      16.644  48.339  -0.654  1.00  0.00    +0.000 C 
ATOM     61  C47 UNL A   1      15.886  47.964  -1.772  1.00  0.00    +0.000 C 
ATOM     62  F6  UNL A   1      14.655  48.467  -1.953  1.00  0.00    +0.000 F 
ATOM     63  C48 UNL A   1      16.374  47.035  -2.688  1.00  0.00    +0.000 C 
ATOM     64  F7  UNL A   1      15.613  46.655  -3.723  1.00  0.00    +0.000 F 
ENDBRANCH   59   60
BRANCH   74   75
ATOM     75  C55 UNL A   1      12.211  47.843   4.698  1.00  0.00    +0.000 C 
ATOM     76  C56 UNL A   1      12.673  47.106   5.797  1.00  0.00    +0.000 C 
ATOM     77  F11 UNL A   1      13.870  47.385   6.333  1.00  0.00    +0.000 F 
ATOM     78  C57 UNL A   1      11.924  46.057   6.326  1.00  0.00    +0.000 C 
ATOM     79  F12 UNL A   1      12.408  45.343   7.352  1.00  0.00    +0.000 F 
ATOM     80  C58 UNL A   1      10.688  45.743   5.785  1.00  0.00    +0.000 C 
ATOM     81  F13 UNL A   1       9.964  44.739   6.298  1.00  0.00    +0.000 F 
ATOM     82  C59 UNL A   1      10.202  46.469   4.707  1.00  0.00    +0.000 C 
ATOM     83  F14 UNL A   1       9.000  46.178   4.191  1.00  0.00    +0.000 F 
ATOM     84  C60 UNL A   1      10.962  47.500   4.159  1.00  0.00    +0.000 C 
ATOM     85  F15 UNL A   1      10.473  48.180   3.112  1.00  0.00    +0.000 F 
ENDBRANCH   74   75
TORSDOF 28
ENDMDL
MODEL 4
REMARK VINA RESULT:      -7.2      3.917     11.054
ROOT
ATOM    142  H40 UNL A   1      13.387  46.642   3.070  1.00  0.00    +0.000 H 
ATOM    143  H41 UNL A   1      15.054  46.637   1.066  1.00  0.00    +0.000 H 
ATOM    144  H42 UNL A   1      14.970  50.450   2.679  1.00  0.00    +0.000 H 
ATOM    145  H43 UNL A   1      16.749  56.575   2.448  1.00  0.00    +0.000 H 
ATOM    146  H44 UNL A   1      15.170  56.560   4.438  1.00  0.00    +0.000 H 
ATOM    147  H45 UNL A   1      15.294  52.706   2.885  1.00  0.00    +0.000 H 
ATOM    148  H46 UNL A   1      18.571  52.856  -0.925  1.00  0.00    +0.000 H 
ATOM    149  H47 UNL A   1      18.003  50.395  -1.341  1.00  0.00    +0.000 H 
ATOM    150  H48 UNL A   1      11.955  50.350   6.683  1.00  0.00    +0.000 H 
ATOM    151  H49 UNL A   1      12.133  52.900   6.828  1.00  0.00    +0.000 H 
ATOM     38  C31 UNL A   1      13.977  54.026   4.970  1.00  0.00    +0.000 C 
ATOM     39  C32 UNL A   1      13.538  52.593   5.074  1.00  0.00    +0.000 C 
ATOM     40  N4  UNL A   1      13.894  51.562   4.348  1.00  0.00    +0.000 N 
ATOM     41  C33 UNL A   1      13.231  50.470   4.892  1.00  0.00    +0.000 C 
ATOM     42  C34 UNL A   1      13.223  49.185   4.460  1.00  0.00    +0.000 C 
ATOM     54  C41 UNL A   1      13.939  48.715   3.303  1.00  0.00    +0.000 C 
ATOM     55  C42 UNL A   1      13.941  47.449   2.743  1.00  0.00    +0.000 C 
ATOM     56  C43 UNL A   1      14.823  47.452   1.657  1.00  0.00    +0.000 C 
ATOM     57  C44 UNL A   1      15.335  48.730   1.510  1.00  0.00    +0.000 C 
ATOM     58  N5  UNL A   1      14.786  49.494   2.528  1.00  0.00    +0.000 N 
ATOM     59  C45 UNL A   1      16.255  49.221   0.517  1.00  0.00    +0.000 C 
ATOM     71  C52 UNL A   1      16.697  50.500   0.428  1.00  0.00    +0.000 C 
ATOM     72  N6  UNL A   1      16.385  51.587   1.233  1.00  0.00    +0.000 N 
ATOM     73  C53 UNL A   1      17.072  52.596   0.756  1.00  0.00    +0.000 C 
ATOM     74  C54 UNL A   1      17.104  54.027   1.220  1.00  0.00    +0.000 C 
ATOM     86  C61 UNL A   1      16.327  54.399   2.255  1.00  0.00    +0.000 C 
ATOM     87  C62 UNL A   1      16.243  55.749   2.805  1.00  0.00    +0.000 C 
ATOM     88  C63 UNL A   1      15.400  55.743   3.850  1.00  0.00    +0.000 C 
ATOM     89  C64 UNL A   1      14.858  54.394   4.021  1.00  0.00    +0.000 C 
ATOM     90  N7  UNL A   1      15.464  53.665   3.029  1.00  0.00    +0.000 N 
ATOM     91  C65 UNL A   1      17.918  52.256  -0.397  1.00  0.00    +0.000 C 
ATOM     92  C66 UNL A   1      17.622  50.978  -0.579  1.00  0.00    +0.000 C 
ATOM     93  C67 UNL A   1      12.492  50.952   6.039  1.00  0.00    +0.000 C 
ATOM     94  C68 UNL A   1      12.595  52.268   6.155  1.00  0.00    +0.000 C 
ENDROOT
BRANCH   38   37
ATOM     34  C27 UNL A   1      12.662  56.998   7.766  1.00  0.00    +0.000 C 
ATOM     35  C28 UNL A   1      11.812  56.601   6.728  1.00  0.00    +0.000 C 
ATOM     36  C29 UNL A   1      12.223  55.608   5.835  1.00  0.00    +0.000 C 
ATOM     37  C30 UNL A   1      13.498  55.032   5.952  1.00  0.00    +0.000 C 
ATOM    140  H38 UNL A   1      10.885  57.039   6.622  1.00  0.00    +0.000 H 
ATOM    141  H39 UNL A   1      11.586  55.296   5.085  1.00  0.00    +0.000 H 
ATOM    152  H50 UNL A   1      15.273  55.010   7.101  1.00  0.00    +0.000 H 
ATOM    153  H51 UNL A   1      14.481  56.592   8.758  1.00  0.00    +0.000 H 
ATOM     95  C69 UNL A   1      14.331  55.422   7.011  1.00  0.00    +0.000 C 
ATOM     96  C70 UNL A   1      13.895  56.363   7.940  1.00  0.00    +0.000 C 
BRANCH   34   32
ATOM     33  O4  UNL A   1      11.675  57.749   9.756  1.00  0.00    +0.000 O 
ATOM     32  C26 UNL A   1      12.207  58.058   8.694  1.00  0.00    +0.000 C 
BRANCH   32   31
ATOM    139  H37 UNL A   1      11.746  60.004   8.798  1.00  0.00    +0.000 H 
ATOM     31  N3  UNL A   1      12.381  59.381   8.376  1.00  0.00    +0.000 N 
BRANCH   31   30
ATOM    137  H35 UNL A   1      13.499  61.019   7.795  1.00  0.00    +0.000 H 
ATOM    138  H36 UNL A   1      14.283  59.450   7.599  1.00  0.00    +0.000 H 
ATOM     30  C25 UNL A   1      13.369  59.998   7.503  1.00  0.00    +0.000 C 
BRANCH   30   29
ATOM     29  C24 UNL A   1      12.943  59.955   6.037  1.00  0.00    +0.000 C 
ATOM    135  H33 UNL A   1      12.005  59.445   5.977  1.00  0.00    +0.000 H 
ATOM    136  H34 UNL A   1      12.893  60.973   5.708  1.00  0.00    +0.000 H 
BRANCH   29   28
ATOM     28  C23 UNL A   1      13.931  59.249   5.101  1.00  0.00    +0.000 C 
ATOM    133  H31 UNL A   1      14.625  59.981   4.742  1.00  0.00    +0.000 H 
ATOM    134  H32 UNL A   1      14.381  58.474   5.682  1.00  0.00    +0.000 H 
BRANCH   28   27
ATOM     27  C22 UNL A   1      13.307  58.554   3.883  1.00  0.00    +0.000 C 
ATOM    132  H30 UNL A   1      13.349  57.504   4.087  1.00  0.00    +0.000 H 
ATOM    131  H29 UNL A   1      13.865  58.842   3.017  1.00  0.00    +0.000 H 
BRANCH   27   26
ATOM    129  H27 UNL A   1      11.394  59.194   4.556  1.00  0.00    +0.000 H 
ATOM     26  C21 UNL A   1      11.833  58.881   3.630  1.00  0.00    +0.000 C 
ATOM    130  H28 UNL A   1      11.807  59.647   2.884  1.00  0.00    +0.000 H 
BRANCH   26   25
ATOM     25  C20 UNL A   1      11.020  57.703   3.086  1.00  0.00    +0.000 C 
ATOM    127  H25 UNL A   1      11.248  56.830   3.661  1.00  0.00    +0.000 H 
ATOM    128  H26 UNL A   1       9.982  57.953   3.161  1.00  0.00    +0.000 H 
BRANCH   25   24
ATOM    126  H24 UNL A   1      11.210  58.218   1.102  1.00  0.00    +0.000 H 
ATOM     24  N2  UNL A   1      11.320  57.439   1.694  1.00  0.00    +0.000 N 
BRANCH   24   22
ATOM     22  C19 UNL A   1      11.727  56.306   1.060  1.00  0.00    +0.000 C 
ATOM     23  O3  UNL A   1      10.843  55.484   0.789  1.00  0.00    +0.000 O 
BRANCH   22   20
ATOM    122  H20 UNL A   1      13.623  55.620   1.606  1.00  0.00    +0.000 H 
ATOM     20  C17 UNL A   1      13.191  56.000   0.704  1.00  0.00    +0.000 C 
BRANCH   20   19
ATOM     97  C71 UNL A   1      13.403  55.117  -1.655  1.00  0.00    +0.000 C 
ATOM     98  C72 UNL A   1      13.615  54.086  -2.592  1.00  0.00    +0.000 C 
ATOM     16  C13 UNL A   1      13.882  52.767  -2.177  1.00  0.00    +0.000 C 
ATOM     17  C14 UNL A   1      13.783  52.511  -0.799  1.00  0.00    +0.000 C 
ATOM     18  C15 UNL A   1      13.484  53.520   0.123  1.00  0.00    +0.000 C 
ATOM     19  C16 UNL A   1      13.356  54.850  -0.278  1.00  0.00    +0.000 C 
ATOM    120  H18 UNL A   1      13.935  51.550  -0.457  1.00  0.00    +0.000 H 
ATOM    121  H19 UNL A   1      13.355  53.275   1.117  1.00  0.00    +0.000 H 
ATOM    154  H52 UNL A   1      13.280  56.086  -1.987  1.00  0.00    +0.000 H 
BRANCH   16   15
ATOM    102  C73 UNL A   1      13.374  50.754  -3.595  1.00  0.00    +0.000 C 
ATOM     11  C8  UNL A   1      13.795  49.725  -4.440  1.00  0.00    +0.000 C 
ATOM     12  C9  UNL A   1      15.130  49.595  -4.810  1.00  0.00    +0.000 C 
ATOM     13  C10 UNL A   1      16.059  50.512  -4.331  1.00  0.00    +0.000 C 
ATOM     14  C11 UNL A   1      15.651  51.532  -3.465  1.00  0.00    +0.000 C 
ATOM     15  C12 UNL A   1      14.305  51.671  -3.077  1.00  0.00    +0.000 C 
ATOM    117  H15 UNL A   1      15.428  48.827  -5.432  1.00  0.00    +0.000 H 
ATOM    118  H16 UNL A   1      17.049  50.440  -4.614  1.00  0.00    +0.000 H 
ATOM    119  H17 UNL A   1      16.352  52.197  -3.103  1.00  0.00    +0.000 H 
ATOM    155  H53 UNL A   1      12.376  50.841  -3.351  1.00  0.00    +0.000 H 
BRANCH   11   10
ATOM     10  O2  UNL A   1      12.931  48.684  -4.825  1.00  0.00    +0.000 O 
BRANCH   10    8
ATOM      9  O1  UNL A   1      13.499  47.012  -6.339  1.00  0.00    +0.000 O 
ATOM      8  C7  UNL A   1      13.052  48.123  -6.087  1.00  0.00    +0.000 C 
BRANCH    8    7
ATOM    116  H14 UNL A   1      11.826  49.520  -6.860  1.00  0.00    +0.000 H 
ATOM      7  N1  UNL A   1      12.599  48.951  -7.079  1.00  0.00    +0.000 N 
BRANCH    7    6
ATOM    114  H12 UNL A   1      13.180  48.100  -8.864  1.00  0.00    +0.000 H 
ATOM    115  H13 UNL A   1      12.498  49.725  -8.975  1.00  0.00    +0.000 H 
ATOM      6  C6  UNL A   1      13.139  49.072  -8.419  1.00  0.00    +0.000 C 
BRANCH    6    5
ATOM    113  H11 UNL A   1      14.732  49.997  -7.418  1.00  0.00    +0.000 H 
ATOM      5  C5  UNL A   1      14.543  49.677  -8.421  1.00  0.00    +0.000 C 
ATOM    112  H10 UNL A   1      14.560  50.476  -9.131  1.00  0.00    +0.000 H 
BRANCH    5    4
ATOM      4  C4  UNL A   1      15.667  48.698  -8.779  1.00  0.00    +0.000 C 
ATOM    110  H8  UNL A   1      15.268  47.707  -8.735  1.00  0.00    +0.000 H 
ATOM    111  H9  UNL A   1      16.006  48.983  -9.753  1.00  0.00    +0.000 H 
BRANCH    4    3
ATOM      3  C3  UNL A   1      16.902  48.751  -7.873  1.00  0.00    +0.000 C 
ATOM    108  H6  UNL A   1      17.593  49.448  -8.296  1.00  0.00    +0.000 H 
ATOM    109  H7  UNL A   1      16.545  49.032  -6.904  1.00  0.00    +0.000 H 
BRANCH    3    2
ATOM      2  C2  UNL A   1      17.633  47.420  -7.681  1.00  0.00    +0.000 C 
ATOM    107  H5  UNL A   1      18.682  47.631  -7.680  1.00  0.00    +0.000 H 
ATOM    106  H4  UNL A   1      17.355  46.761  -8.477  1.00  0.00    +0.000 H 
BRANCH    2    1
ATOM      1  C1  UNL A   1      17.310  46.741  -6.358  1.00  0.00    +0.000 C 
ATOM    105  H3  UNL A   1      17.991  45.932  -6.197  1.00  0.00    +0.000 H 
ATOM    103  H1  UNL A   1      16.309  46.363  -6.387  1.00  0.00    +0.000 H 
ATOM    104  H2  UNL A   1      17.400  47.449  -5.562  1.00  0.00    +0.000 H 
ENDBRANCH    2    1
ENDBRANCH    3    2
ENDBRANCH    4    3
ENDBRANCH    5    4
ENDBRANCH    6    5
ENDBRANCH    7    6
ENDBRANCH    8    7
ENDBRANCH   10    8
ENDBRANCH   11   10
ENDBRANCH   16   15
BRANCH   98   99
ATOM     99  N8  UNL A   1      13.490  54.424  -3.993  1.00  0.00    +0.000 N 
ATOM    100  O5  UNL A   1      14.354  55.066  -4.555  1.00  0.00    +0.000 O 
ATOM    101  O6  UNL A   1      12.335  54.161  -4.689  1.00  0.00    +0.000 O 
ENDBRANCH   98   99
ENDBRANCH   20   19
BRANCH   20   21
ATOM    125  H23 UNL A   1      14.027  57.883   1.278  1.00  0.00    +0.000 H 
ATOM    123  H21 UNL A   1      13.657  57.756  -0.425  1.00  0.00    +0.000 H 
ATOM    124  H22 UNL A   1      15.054  56.937   0.229  1.00  0.00    +0.000 H 
ATOM     21  C18 UNL A   1      14.046  57.237   0.426  1.00  0.00    +0.000 C 
ENDBRANCH   20   21
ENDBRANCH   22   20
ENDBRANCH   24   22
ENDBRANCH   25   24
ENDBRANCH   26   25
ENDBRANCH   27   26
ENDBRANCH   28   27
ENDBRANCH   29   28
ENDBRANCH   30   29
ENDBRANCH   31   30
ENDBRANCH   32   31
ENDBRANCH   34   32
ENDBRANCH   38   37
BRANCH   42   43
ATOM     43  C35 UNL A   1      12.410  48.196   5.244  1.00  0.00    +0.000 C 
ATOM     44  C36 UNL A   1      11.080  47.902   4.906  1.00  0.00    +0.000 C 
ATOM     45  F1  UNL A   1      10.488  48.537   3.884  1.00  0.00    +0.000 F 
ATOM     46  C37 UNL A   1      10.339  46.984   5.645  1.00  0.00    +0.000 C 
ATOM     47  F2  UNL A   1       9.054  46.758   5.335  1.00  0.00    +0.000 F 
ATOM     48  C38 UNL A   1      10.920  46.316   6.711  1.00  0.00    +0.000 C 
ATOM     49  F3  UNL A   1      10.206  45.429   7.418  1.00  0.00    +0.000 F 
ATOM     50  C39 UNL A   1      12.241  46.571   7.048  1.00  0.00    +0.000 C 
ATOM     51  F4  UNL A   1      12.810  45.916   8.070  1.00  0.00    +0.000 F 
ATOM     52  C40 UNL A   1      12.977  47.511   6.330  1.00  0.00    +0.000 C 
ATOM     53  F5  UNL A   1      14.247  47.749   6.692  1.00  0.00    +0.000 F 
ENDBRANCH   42   43
BRANCH   59   60
ATOM     65  C49 UNL A   1      17.631  46.405  -2.442  1.00  0.00    +0.000 C 
ATOM     66  F8  UNL A   1      18.056  45.532  -3.366  1.00  0.00    +0.000 F 
ATOM     67  C50 UNL A   1      16.358  46.947  -2.533  1.00  0.00    +0.000 C 
ATOM     68  F9  UNL A   1      15.544  46.580  -3.532  1.00  0.00    +0.000 F 
ATOM     69  C51 UNL A   1      15.924  47.871  -1.587  1.00  0.00    +0.000 C 
ATOM     70  F10 UNL A   1      14.692  48.388  -1.708  1.00  0.00    +0.000 F 
ATOM     60  C46 UNL A   1      16.750  48.253  -0.519  1.00  0.00    +0.000 C 
ATOM     61  C47 UNL A   1      18.027  47.678  -0.436  1.00  0.00    +0.000 C 
ATOM     62  F6  UNL A   1      18.859  48.023   0.558  1.00  0.00    +0.000 F 
ATOM     63  C48 UNL A   1      18.468  46.775  -1.400  1.00  0.00    +0.000 C 
ATOM     64  F7  UNL A   1      19.709  46.275  -1.327  1.00  0.00    +0.000 F 
ENDBRANCH   59   60
BRANCH   74   75
ATOM     75  C55 UNL A   1      17.952  55.034   0.534  1.00  0.00    +0.000 C 
ATOM     76  C56 UNL A   1      19.135  55.498   1.126  1.00  0.00    +0.000 C 
ATOM     77  F11 UNL A   1      19.495  55.054   2.339  1.00  0.00    +0.000 F 
ATOM     78  C57 UNL A   1      19.934  56.446   0.489  1.00  0.00    +0.000 C 
ATOM     79  F12 UNL A   1      21.039  56.901   1.095  1.00  0.00    +0.000 F 
ATOM     80  C58 UNL A   1      19.580  56.927  -0.761  1.00  0.00    +0.000 C 
ATOM     81  F13 UNL A   1      20.352  57.833  -1.376  1.00  0.00    +0.000 F 
ATOM     82  C59 UNL A   1      18.422  56.471  -1.373  1.00  0.00    +0.000 C 
ATOM     83  F14 UNL A   1      18.085  56.923  -2.589  1.00  0.00    +0.000 F 
ATOM     84  C60 UNL A   1      17.608  55.544  -0.726  1.00  0.00    +0.000 C 
ATOM     85  F15 UNL A   1      16.489  55.126  -1.337  1.00  0.00    +0.000 F 
ENDBRANCH   74   75
TORSDOF 28
ENDMDL
MODEL 5
REMARK VINA RESULT:      -7.1      2.679      8.775
ROOT
ATOM    142  H40 UNL A   1      13.498  46.936   3.151  1.00  0.00    +0.000 H 
ATOM    143  H41 UNL A   1      15.120  46.941   1.110  1.00  0.00    +0.000 H 
ATOM    144  H42 UNL A   1      15.003  50.768   2.688  1.00  0.00    +0.000 H 
ATOM    145  H43 UNL A   1      16.665  56.921   2.359  1.00  0.00    +0.000 H 
ATOM    146  H44 UNL A   1      15.131  56.897   4.384  1.00  0.00    +0.000 H 
ATOM    147  H45 UNL A   1      15.290  53.031   2.865  1.00  0.00    +0.000 H 
ATOM    148  H46 UNL A   1      18.477  53.202  -1.019  1.00  0.00    +0.000 H 
ATOM    149  H47 UNL A   1      17.945  50.728  -1.400  1.00  0.00    +0.000 H 
ATOM    150  H48 UNL A   1      12.081  50.652   6.760  1.00  0.00    +0.000 H 
ATOM    151  H49 UNL A   1      12.215  53.207   6.877  1.00  0.00    +0.000 H 
ATOM     38  C31 UNL A   1      13.997  54.348   4.967  1.00  0.00    +0.000 C 
ATOM     39  C32 UNL A   1      13.586  52.908   5.095  1.00  0.00    +0.000 C 
ATOM     40  N4  UNL A   1      13.944  51.876   4.370  1.00  0.00    +0.000 N 
ATOM     41  C33 UNL A   1      13.314  50.778   4.939  1.00  0.00    +0.000 C 
ATOM     42  C34 UNL A   1      13.319  49.489   4.520  1.00  0.00    +0.000 C 
ATOM     54  C41 UNL A   1      14.018  49.020   3.351  1.00  0.00    +0.000 C 
ATOM     55  C42 UNL A   1      14.030  47.750   2.804  1.00  0.00    +0.000 C 
ATOM     56  C43 UNL A   1      14.888  47.757   1.698  1.00  0.00    +0.000 C 
ATOM     57  C44 UNL A   1      15.372  49.043   1.527  1.00  0.00    +0.000 C 
ATOM     58  N5  UNL A   1      14.833  49.808   2.550  1.00  0.00    +0.000 N 
ATOM     59  C45 UNL A   1      16.261  49.541   0.509  1.00  0.00    +0.000 C 
ATOM     71  C52 UNL A   1      16.677  50.826   0.398  1.00  0.00    +0.000 C 
ATOM     72  N6  UNL A   1      16.364  51.916   1.200  1.00  0.00    +0.000 N 
ATOM     73  C53 UNL A   1      17.022  52.933   0.697  1.00  0.00    +0.000 C 
ATOM     74  C54 UNL A   1      17.037  54.368   1.147  1.00  0.00    +0.000 C 
ATOM     86  C61 UNL A   1      16.277  54.737   2.196  1.00  0.00    +0.000 C 
ATOM     87  C62 UNL A   1      16.181  56.090   2.735  1.00  0.00    +0.000 C 
ATOM     88  C63 UNL A   1      15.363  56.079   3.799  1.00  0.00    +0.000 C 
ATOM     89  C64 UNL A   1      14.850  54.722   3.995  1.00  0.00    +0.000 C 
ATOM     90  N7  UNL A   1      15.445  53.994   2.996  1.00  0.00    +0.000 N 
ATOM     91  C65 UNL A   1      17.848  52.596  -0.471  1.00  0.00    +0.000 C 
ATOM     92  C66 UNL A   1      17.571  51.311  -0.634  1.00  0.00    +0.000 C 
ATOM     93  C67 UNL A   1      12.592  51.258   6.098  1.00  0.00    +0.000 C 
ATOM     94  C68 UNL A   1      12.674  52.577   6.200  1.00  0.00    +0.000 C 
ENDROOT
BRANCH   38   37
ATOM     34  C27 UNL A   1      12.701  57.317   7.774  1.00  0.00    +0.000 C 
ATOM     35  C28 UNL A   1      11.910  57.030   6.657  1.00  0.00    +0.000 C 
ATOM     36  C29 UNL A   1      12.311  56.039   5.758  1.00  0.00    +0.000 C 
ATOM     37  C30 UNL A   1      13.522  55.354   5.950  1.00  0.00    +0.000 C 
ATOM    140  H38 UNL A   1      11.033  57.548   6.497  1.00  0.00    +0.000 H 
ATOM    141  H39 UNL A   1      11.714  55.809   4.948  1.00  0.00    +0.000 H 
ATOM    152  H50 UNL A   1      15.189  55.143   7.233  1.00  0.00    +0.000 H 
ATOM    153  H51 UNL A   1      14.394  56.725   8.888  1.00  0.00    +0.000 H 
ATOM     95  C69 UNL A   1      14.294  55.635   7.087  1.00  0.00    +0.000 C 
ATOM     96  C70 UNL A   1      13.860  56.576   8.018  1.00  0.00    +0.000 C 
BRANCH   34   32
ATOM     33  O4  UNL A   1      11.684  58.071   9.748  1.00  0.00    +0.000 O 
ATOM     32  C26 UNL A   1      12.259  58.378   8.708  1.00  0.00    +0.000 C 
BRANCH   32   31
ATOM    139  H37 UNL A   1      11.760  60.166   7.957  1.00  0.00    +0.000 H 
ATOM     31  N3  UNL A   1      12.492  59.699   8.419  1.00  0.00    +0.000 N 
BRANCH   31   30
ATOM    137  H35 UNL A   1      14.394  59.906   9.201  1.00  0.00    +0.000 H 
ATOM    138  H36 UNL A   1      14.049  60.870   7.763  1.00  0.00    +0.000 H 
ATOM     30  C25 UNL A   1      13.669  60.510   8.697  1.00  0.00    +0.000 C 
BRANCH   30   29
ATOM     29  C24 UNL A   1      13.339  61.717   9.571  1.00  0.00    +0.000 C 
ATOM    135  H33 UNL A   1      14.163  62.398   9.522  1.00  0.00    +0.000 H 
ATOM    136  H34 UNL A   1      12.428  62.127   9.186  1.00  0.00    +0.000 H 
BRANCH   29   28
ATOM     28  C23 UNL A   1      13.075  61.392  11.045  1.00  0.00    +0.000 C 
ATOM    133  H31 UNL A   1      13.511  60.437  11.254  1.00  0.00    +0.000 H 
ATOM    134  H32 UNL A   1      13.505  62.195  11.604  1.00  0.00    +0.000 H 
BRANCH   28   27
ATOM     27  C22 UNL A   1      11.597  61.336  11.457  1.00  0.00    +0.000 C 
ATOM    132  H30 UNL A   1      11.086  60.830  10.664  1.00  0.00    +0.000 H 
ATOM    131  H29 UNL A   1      11.259  62.340  11.610  1.00  0.00    +0.000 H 
BRANCH   27   26
ATOM    129  H27 UNL A   1      10.354  60.059  12.618  1.00  0.00    +0.000 H 
ATOM     26  C21 UNL A   1      11.306  60.537  12.731  1.00  0.00    +0.000 C 
ATOM    130  H28 UNL A   1      12.106  59.836  12.848  1.00  0.00    +0.000 H 
BRANCH   26   25
ATOM     25  C20 UNL A   1      11.271  61.388  14.003  1.00  0.00    +0.000 C 
ATOM    127  H25 UNL A   1      12.052  62.117  13.954  1.00  0.00    +0.000 H 
ATOM    128  H26 UNL A   1      10.310  61.856  14.063  1.00  0.00    +0.000 H 
BRANCH   25   24
ATOM    126  H24 UNL A   1      12.313  60.729  15.651  1.00  0.00    +0.000 H 
ATOM     24  N2  UNL A   1      11.454  60.584  15.193  1.00  0.00    +0.000 N 
BRANCH   24   22
ATOM     22  C19 UNL A   1      10.649  59.663  15.792  1.00  0.00    +0.000 C 
ATOM     23  O3  UNL A   1       9.433  59.817  15.634  1.00  0.00    +0.000 O 
BRANCH   22   20
ATOM    122  H20 UNL A   1      10.432  58.369  17.417  1.00  0.00    +0.000 H 
ATOM     20  C17 UNL A   1      11.168  58.498  16.651  1.00  0.00    +0.000 C 
BRANCH   20   19
ATOM     97  C71 UNL A   1      10.617  56.033  16.564  1.00  0.00    +0.000 C 
ATOM     98  C72 UNL A   1      10.543  54.788  15.907  1.00  0.00    +0.000 C 
ATOM     16  C13 UNL A   1      10.933  54.650  14.561  1.00  0.00    +0.000 C 
ATOM     17  C14 UNL A   1      11.526  55.774  13.962  1.00  0.00    +0.000 C 
ATOM     18  C15 UNL A   1      11.680  56.985  14.645  1.00  0.00    +0.000 C 
ATOM     19  C16 UNL A   1      11.168  57.158  15.931  1.00  0.00    +0.000 C 
ATOM    120  H18 UNL A   1      11.859  55.704  12.988  1.00  0.00    +0.000 H 
ATOM    121  H19 UNL A   1      12.181  57.764  14.190  1.00  0.00    +0.000 H 
ATOM    154  H52 UNL A   1      10.258  56.119  17.528  1.00  0.00    +0.000 H 
BRANCH   16   15
ATOM    102  C73 UNL A   1      11.624  52.370  13.757  1.00  0.00    +0.000 C 
ATOM     11  C8  UNL A   1      11.397  51.238  12.972  1.00  0.00    +0.000 C 
ATOM     12  C9  UNL A   1      10.259  51.125  12.180  1.00  0.00    +0.000 C 
ATOM     13  C10 UNL A   1       9.330  52.160  12.176  1.00  0.00    +0.000 C 
ATOM     14  C11 UNL A   1       9.561  53.308  12.940  1.00  0.00    +0.000 C 
ATOM     15  C12 UNL A   1      10.711  53.439  13.741  1.00  0.00    +0.000 C 
ATOM    117  H15 UNL A   1      10.106  50.284  11.602  1.00  0.00    +0.000 H 
ATOM    118  H16 UNL A   1       8.471  52.080  11.609  1.00  0.00    +0.000 H 
ATOM    119  H17 UNL A   1       8.872  54.076  12.916  1.00  0.00    +0.000 H 
ATOM    155  H53 UNL A   1      12.466  52.423  14.351  1.00  0.00    +0.000 H 
BRANCH   11   10
ATOM     10  O2  UNL A   1      12.373  50.238  12.818  1.00  0.00    +0.000 O 
BRANCH   10    8
ATOM      9  O1  UNL A   1      12.696  49.937  10.534  1.00  0.00    +0.000 O 
ATOM      8  C7  UNL A   1      13.124  50.185  11.654  1.00  0.00    +0.000 C 
BRANCH    8    7
ATOM    116  H14 UNL A   1      15.088  50.057  11.234  1.00  0.00    +0.000 H 
ATOM      7  N1  UNL A   1      14.449  50.457  11.865  1.00  0.00    +0.000 N 
BRANCH    7    6
ATOM    114  H12 UNL A   1      14.268  51.396  13.692  1.00  0.00    +0.000 H 
ATOM    115  H13 UNL A   1      15.877  50.777  13.302  1.00  0.00    +0.000 H 
ATOM      6  C6  UNL A   1      15.006  51.274  12.925  1.00  0.00    +0.000 C 
BRANCH    6    5
ATOM    113  H11 UNL A   1      15.818  52.509  11.438  1.00  0.00    +0.000 H 
ATOM      5  C5  UNL A   1      15.432  52.655  12.426  1.00  0.00    +0.000 C 
ATOM    112  H10 UNL A   1      16.153  53.048  13.110  1.00  0.00    +0.000 H 
BRANCH    5    4
ATOM      4  C4  UNL A   1      14.294  53.674  12.296  1.00  0.00    +0.000 C 
ATOM    110  H8  UNL A   1      13.425  53.259  12.759  1.00  0.00    +0.000 H 
ATOM    111  H9  UNL A   1      14.646  54.569  12.764  1.00  0.00    +0.000 H 
BRANCH    4    3
ATOM      3  C3  UNL A   1      13.922  54.069  10.863  1.00  0.00    +0.000 C 
ATOM    108  H6  UNL A   1      14.552  54.882  10.569  1.00  0.00    +0.000 H 
ATOM    109  H7  UNL A   1      14.051  53.187  10.271  1.00  0.00    +0.000 H 
BRANCH    3    2
ATOM      2  C2  UNL A   1      12.468  54.503  10.657  1.00  0.00    +0.000 C 
ATOM    107  H5  UNL A   1      12.486  55.504  10.281  1.00  0.00    +0.000 H 
ATOM    106  H4  UNL A   1      11.957  54.433  11.595  1.00  0.00    +0.000 H 
BRANCH    2    1
ATOM      1  C1  UNL A   1      11.724  53.652   9.639  1.00  0.00    +0.000 C 
ATOM    105  H3  UNL A   1      11.020  54.261   9.112  1.00  0.00    +0.000 H 
ATOM    103  H1  UNL A   1      11.206  52.863  10.143  1.00  0.00    +0.000 H 
ATOM    104  H2  UNL A   1      12.423  53.232   8.946  1.00  0.00    +0.000 H 
ENDBRANCH    2    1
ENDBRANCH    3    2
ENDBRANCH    4    3
ENDBRANCH    5    4
ENDBRANCH    6    5
ENDBRANCH    7    6
ENDBRANCH    8    7
ENDBRANCH   10    8
ENDBRANCH   11   10
ENDBRANCH   16   15
BRANCH   98   99
ATOM     99  N8  UNL A   1      10.109  53.650  16.686  1.00  0.00    +0.000 N 
ATOM    100  O5  UNL A   1      10.911  52.981  17.307  1.00  0.00    +0.000 O 
ATOM    101  O6  UNL A   1       8.810  53.203  16.634  1.00  0.00    +0.000 O 
ENDBRANCH   98   99
ENDBRANCH   20   19
BRANCH   20   21
ATOM    125  H23 UNL A   1      12.947  57.910  17.681  1.00  0.00    +0.000 H 
ATOM    123  H21 UNL A   1      12.155  59.309  18.367  1.00  0.00    +0.000 H 
ATOM    124  H22 UNL A   1      13.064  59.460  16.882  1.00  0.00    +0.000 H 
ATOM     21  C18 UNL A   1      12.428  58.818  17.456  1.00  0.00    +0.000 C 
ENDBRANCH   20   21
ENDBRANCH   22   20
ENDBRANCH   24   22
ENDBRANCH   25   24
ENDBRANCH   26   25
ENDBRANCH   27   26
ENDBRANCH   28   27
ENDBRANCH   29   28
ENDBRANCH   30   29
ENDBRANCH   31   30
ENDBRANCH   32   31
ENDBRANCH   34   32
ENDBRANCH   38   37
BRANCH   42   43
ATOM     43  C35 UNL A   1      12.543  48.493   5.332  1.00  0.00    +0.000 C 
ATOM     44  C36 UNL A   1      11.193  48.217   5.065  1.00  0.00    +0.000 C 
ATOM     45  F1  UNL A   1      10.550  48.876   4.089  1.00  0.00    +0.000 F 
ATOM     46  C37 UNL A   1      10.485  47.293   5.828  1.00  0.00    +0.000 C 
ATOM     47  F2  UNL A   1       9.183  47.084   5.588  1.00  0.00    +0.000 F 
ATOM     48  C38 UNL A   1      11.120  46.600   6.848  1.00  0.00    +0.000 C 
ATOM     49  F3  UNL A   1      10.438  45.708   7.579  1.00  0.00    +0.000 F 
ATOM     50  C39 UNL A   1      12.460  46.838   7.113  1.00  0.00    +0.000 C 
ATOM     51  F4  UNL A   1      13.079  46.159   8.090  1.00  0.00    +0.000 F 
ATOM     52  C40 UNL A   1      13.163  47.784   6.371  1.00  0.00    +0.000 C 
ATOM     53  F5  UNL A   1      14.454  48.003   6.665  1.00  0.00    +0.000 F 
ENDBRANCH   42   43
BRANCH   59   60
ATOM     65  C49 UNL A   1      17.712  46.794  -2.479  1.00  0.00    +0.000 C 
ATOM     66  F8  UNL A   1      18.166  45.937  -3.405  1.00  0.00    +0.000 F 
ATOM     67  C50 UNL A   1      18.484  47.085  -1.365  1.00  0.00    +0.000 C 
ATOM     68  F9  UNL A   1      19.693  46.526  -1.224  1.00  0.00    +0.000 F 
ATOM     69  C51 UNL A   1      18.004  47.957  -0.392  1.00  0.00    +0.000 C 
ATOM     70  F10 UNL A   1      18.767  48.209   0.682  1.00  0.00    +0.000 F 
ATOM     60  C46 UNL A   1      16.750  48.571  -0.529  1.00  0.00    +0.000 C 
ATOM     61  C47 UNL A   1      15.994  48.278  -1.674  1.00  0.00    +0.000 C 
ATOM     62  F6  UNL A   1      14.782  48.828  -1.842  1.00  0.00    +0.000 F 
ATOM     63  C48 UNL A   1      16.465  47.383  -2.631  1.00  0.00    +0.000 C 
ATOM     64  F7  UNL A   1      15.706  47.081  -3.692  1.00  0.00    +0.000 F 
ENDBRANCH   59   60
BRANCH   74   75
ATOM     75  C55 UNL A   1      17.852  55.384   0.432  1.00  0.00    +0.000 C 
ATOM     76  C56 UNL A   1      19.101  55.782   0.930  1.00  0.00    +0.000 C 
ATOM     77  F11 UNL A   1      19.557  55.265   2.081  1.00  0.00    +0.000 F 
ATOM     78  C57 UNL A   1      19.868  56.737   0.267  1.00  0.00    +0.000 C 
ATOM     79  F12 UNL A   1      21.040  57.128   0.786  1.00  0.00    +0.000 F 
ATOM     80  C58 UNL A   1      19.415  57.291  -0.919  1.00  0.00    +0.000 C 
ATOM     81  F13 UNL A   1      20.156  58.205  -1.561  1.00  0.00    +0.000 F 
ATOM     82  C59 UNL A   1      18.190  56.902  -1.439  1.00  0.00    +0.000 C 
ATOM     83  F14 UNL A   1      17.755  57.425  -2.594  1.00  0.00    +0.000 F 
ATOM     84  C60 UNL A   1      17.409  55.967  -0.763  1.00  0.00    +0.000 C 
ATOM     85  F15 UNL A   1      16.224  55.614  -1.284  1.00  0.00    +0.000 F 
ENDBRANCH   74   75
TORSDOF 28
ENDMDL
MODEL 6
REMARK VINA RESULT:      -7.1     43.199     49.679
ROOT
ATOM    142  H40 UNL A   1      11.407   9.463  29.342  1.00  0.00    +0.000 H 
ATOM    143  H41 UNL A   1      12.347   7.095  29.896  1.00  0.00    +0.000 H 
ATOM    144  H42 UNL A   1       9.048   6.642  27.434  1.00  0.00    +0.000 H 
ATOM    145  H43 UNL A   1       4.835   2.849  24.504  1.00  0.00    +0.000 H 
ATOM    146  H44 UNL A   1       3.960   5.160  23.917  1.00  0.00    +0.000 H 
ATOM    147  H45 UNL A   1       7.313   5.645  26.325  1.00  0.00    +0.000 H 
ATOM    148  H46 UNL A   1       9.022   1.011  27.264  1.00  0.00    +0.000 H 
ATOM    149  H47 UNL A   1      10.804   2.106  28.739  1.00  0.00    +0.000 H 
ATOM    150  H48 UNL A   1       7.433  11.221  26.185  1.00  0.00    +0.000 H 
ATOM    151  H49 UNL A   1       5.372  10.153  25.104  1.00  0.00    +0.000 H 
ATOM     38  C31 UNL A   1       5.449   7.305  25.062  1.00  0.00    +0.000 C 
ATOM     39  C32 UNL A   1       6.422   8.240  25.723  1.00  0.00    +0.000 C 
ATOM     40  N4  UNL A   1       7.498   7.962  26.417  1.00  0.00    +0.000 N 
ATOM     41  C33 UNL A   1       8.054   9.187  26.759  1.00  0.00    +0.000 C 
ATOM     42  C34 UNL A   1       9.142   9.436  27.526  1.00  0.00    +0.000 C 
ATOM     54  C41 UNL A   1       9.948   8.416  28.146  1.00  0.00    +0.000 C 
ATOM     55  C42 UNL A   1      11.029   8.567  28.996  1.00  0.00    +0.000 C 
ATOM     56  C43 UNL A   1      11.523   7.295  29.306  1.00  0.00    +0.000 C 
ATOM     57  C44 UNL A   1      10.721   6.350  28.689  1.00  0.00    +0.000 C 
ATOM     58  N5  UNL A   1       9.760   7.052  27.978  1.00  0.00    +0.000 N 
ATOM     59  C45 UNL A   1      10.820   4.914  28.742  1.00  0.00    +0.000 C 
ATOM     71  C52 UNL A   1       9.979   4.051  28.121  1.00  0.00    +0.000 C 
ATOM     72  N6  UNL A   1       8.877   4.330  27.324  1.00  0.00    +0.000 N 
ATOM     73  C53 UNL A   1       8.403   3.168  26.946  1.00  0.00    +0.000 C 
ATOM     74  C54 UNL A   1       7.202   2.865  26.092  1.00  0.00    +0.000 C 
ATOM     86  C61 UNL A   1       6.449   3.883  25.632  1.00  0.00    +0.000 C 
ATOM     87  C62 UNL A   1       5.254   3.743  24.806  1.00  0.00    +0.000 C 
ATOM     88  C63 UNL A   1       4.785   4.964  24.505  1.00  0.00    +0.000 C 
ATOM     89  C64 UNL A   1       5.630   5.973  25.145  1.00  0.00    +0.000 C 
ATOM     90  N7  UNL A   1       6.591   5.238  25.794  1.00  0.00    +0.000 N 
ATOM     91  C65 UNL A   1       9.168   2.016  27.444  1.00  0.00    +0.000 C 
ATOM     92  C66 UNL A   1      10.092   2.609  28.185  1.00  0.00    +0.000 C 
ATOM     93  C67 UNL A   1       7.226  10.210  26.156  1.00  0.00    +0.000 C 
ATOM     94  C68 UNL A   1       6.168   9.679  25.561  1.00  0.00    +0.000 C 
ENDROOT
BRANCH   38   37
ATOM     34  C27 UNL A   1       2.181   8.753  22.695  1.00  0.00    +0.000 C 
ATOM     35  C28 UNL A   1       2.041   8.660  24.083  1.00  0.00    +0.000 C 
ATOM     36  C29 UNL A   1       3.115   8.221  24.862  1.00  0.00    +0.000 C 
ATOM     37  C30 UNL A   1       4.322   7.839  24.256  1.00  0.00    +0.000 C 
ATOM    140  H38 UNL A   1       1.148   8.915  24.531  1.00  0.00    +0.000 H 
ATOM    141  H39 UNL A   1       3.020   8.178  25.889  1.00  0.00    +0.000 H 
ATOM    152  H50 UNL A   1       5.338   7.674  22.409  1.00  0.00    +0.000 H 
ATOM    153  H51 UNL A   1       3.540   8.617  21.084  1.00  0.00    +0.000 H 
ATOM     95  C69 UNL A   1       4.457   7.959  22.865  1.00  0.00    +0.000 C 
ATOM     96  C70 UNL A   1       3.410   8.460  22.096  1.00  0.00    +0.000 C 
BRANCH   34   32
ATOM     33  O4  UNL A   1      -0.043   8.614  21.967  1.00  0.00    +0.000 O 
ATOM     32  C26 UNL A   1       1.026   9.212  21.890  1.00  0.00    +0.000 C 
BRANCH   32   31
ATOM    139  H37 UNL A   1       1.608  10.140  20.214  1.00  0.00    +0.000 H 
ATOM     31  N3  UNL A   1       1.142  10.303  21.066  1.00  0.00    +0.000 N 
BRANCH   31   30
ATOM    137  H35 UNL A   1       1.425  12.343  20.912  1.00  0.00    +0.000 H 
ATOM    138  H36 UNL A   1      -0.240  11.787  20.732  1.00  0.00    +0.000 H 
ATOM     30  C25 UNL A   1       0.678  11.667  21.270  1.00  0.00    +0.000 C 
BRANCH   30   29
ATOM     29  C24 UNL A   1       0.405  11.965  22.742  1.00  0.00    +0.000 C 
ATOM    135  H33 UNL A   1      -0.322  12.748  22.794  1.00  0.00    +0.000 H 
ATOM    136  H34 UNL A   1       0.070  11.047  23.178  1.00  0.00    +0.000 H 
BRANCH   29   28
ATOM     28  C23 UNL A   1       1.634  12.402  23.548  1.00  0.00    +0.000 C 
ATOM    133  H31 UNL A   1       1.363  13.266  24.119  1.00  0.00    +0.000 H 
ATOM    134  H32 UNL A   1       1.908  11.558  24.143  1.00  0.00    +0.000 H 
BRANCH   28   27
ATOM     27  C22 UNL A   1       2.878  12.754  22.720  1.00  0.00    +0.000 C 
ATOM    132  H30 UNL A   1       3.075  13.790  22.905  1.00  0.00    +0.000 H 
ATOM    131  H29 UNL A   1       2.664  12.537  21.694  1.00  0.00    +0.000 H 
BRANCH   27   26
ATOM    129  H27 UNL A   1       4.230  11.998  24.177  1.00  0.00    +0.000 H 
ATOM     26  C21 UNL A   1       4.154  12.001  23.110  1.00  0.00    +0.000 C 
ATOM    130  H28 UNL A   1       4.070  11.016  22.700  1.00  0.00    +0.000 H 
BRANCH   26   25
ATOM     25  C20 UNL A   1       5.435  12.613  22.537  1.00  0.00    +0.000 C 
ATOM    127  H25 UNL A   1       5.201  13.115  21.621  1.00  0.00    +0.000 H 
ATOM    128  H26 UNL A   1       5.829  13.297  23.261  1.00  0.00    +0.000 H 
BRANCH   25   24
ATOM    126  H24 UNL A   1       6.131  10.859  21.716  1.00  0.00    +0.000 H 
ATOM     24  N2  UNL A   1       6.442  11.606  22.275  1.00  0.00    +0.000 N 
BRANCH   24   22
ATOM     22  C19 UNL A   1       7.743  11.510  22.665  1.00  0.00    +0.000 C 
ATOM     23  O3  UNL A   1       8.080  12.219  23.621  1.00  0.00    +0.000 O 
BRANCH   22   20
ATOM    122  H20 UNL A   1       9.622  10.599  22.637  1.00  0.00    +0.000 H 
ATOM     20  C17 UNL A   1       8.783  10.613  21.974  1.00  0.00    +0.000 C 
BRANCH   20   19
ATOM     97  C71 UNL A   1       7.822   8.649  20.705  1.00  0.00    +0.000 C 
ATOM     98  C72 UNL A   1       7.486   7.286  20.572  1.00  0.00    +0.000 C 
ATOM     16  C13 UNL A   1       7.778   6.361  21.592  1.00  0.00    +0.000 C 
ATOM     17  C14 UNL A   1       8.284   6.889  22.792  1.00  0.00    +0.000 C 
ATOM     18  C15 UNL A   1       8.534   8.256  22.954  1.00  0.00    +0.000 C 
ATOM     19  C16 UNL A   1       8.373   9.150  21.895  1.00  0.00    +0.000 C 
ATOM    120  H18 UNL A   1       8.478   6.249  23.578  1.00  0.00    +0.000 H 
ATOM    121  H19 UNL A   1       8.842   8.609  23.873  1.00  0.00    +0.000 H 
ATOM    154  H52 UNL A   1       7.660   9.290  19.913  1.00  0.00    +0.000 H 
BRANCH   16   15
ATOM    102  C73 UNL A   1       8.767   4.053  21.459  1.00  0.00    +0.000 C 
ATOM     11  C8  UNL A   1       8.613   2.671  21.331  1.00  0.00    +0.000 C 
ATOM     12  C9  UNL A   1       7.353   2.090  21.229  1.00  0.00    +0.000 C 
ATOM     13  C10 UNL A   1       6.226   2.905  21.260  1.00  0.00    +0.000 C 
ATOM     14  C11 UNL A   1       6.370   4.292  21.363  1.00  0.00    +0.000 C 
ATOM     15  C12 UNL A   1       7.640   4.893  21.461  1.00  0.00    +0.000 C 
ATOM    117  H15 UNL A   1       7.255   1.068  21.131  1.00  0.00    +0.000 H 
ATOM    118  H16 UNL A   1       5.284   2.486  21.206  1.00  0.00    +0.000 H 
ATOM    119  H17 UNL A   1       5.528   4.888  21.369  1.00  0.00    +0.000 H 
ATOM    155  H53 UNL A   1       9.710   4.458  21.553  1.00  0.00    +0.000 H 
BRANCH   11   10
ATOM     10  O2  UNL A   1       9.715   1.819  21.137  1.00  0.00    +0.000 O 
BRANCH   10    8
ATOM      9  O1  UNL A   1      11.244   2.113  22.865  1.00  0.00    +0.000 O 
ATOM      8  C7  UNL A   1      10.946   2.156  21.679  1.00  0.00    +0.000 C 
BRANCH    8    7
ATOM    116  H14 UNL A   1      12.449   3.295  20.974  1.00  0.00    +0.000 H 
ATOM      7  N1  UNL A   1      11.851   2.552  20.731  1.00  0.00    +0.000 N 
BRANCH    7    6
ATOM    114  H12 UNL A   1      13.012   1.597  19.321  1.00  0.00    +0.000 H 
ATOM    115  H13 UNL A   1      11.287   1.218  19.279  1.00  0.00    +0.000 H 
ATOM      6  C6  UNL A   1      12.019   1.989  19.406  1.00  0.00    +0.000 C 
BRANCH    6    5
ATOM    113  H11 UNL A   1      12.022   2.537  17.382  1.00  0.00    +0.000 H 
ATOM      5  C5  UNL A   1      11.802   3.029  18.307  1.00  0.00    +0.000 C 
ATOM    112  H10 UNL A   1      12.442   3.862  18.506  1.00  0.00    +0.000 H 
BRANCH    5    4
ATOM      4  C4  UNL A   1      10.366   3.550  18.184  1.00  0.00    +0.000 C 
ATOM    110  H8  UNL A   1      10.064   3.912  19.144  1.00  0.00    +0.000 H 
ATOM    111  H9  UNL A   1      10.391   4.306  17.427  1.00  0.00    +0.000 H 
BRANCH    4    3
ATOM      3  C3  UNL A   1       9.328   2.524  17.718  1.00  0.00    +0.000 C 
ATOM    108  H6  UNL A   1       9.825   1.812  17.093  1.00  0.00    +0.000 H 
ATOM    109  H7  UNL A   1       8.912   2.100  18.608  1.00  0.00    +0.000 H 
BRANCH    3    2
ATOM      2  C2  UNL A   1       8.145   3.096  16.932  1.00  0.00    +0.000 C 
ATOM    107  H5  UNL A   1       8.065   2.534  16.026  1.00  0.00    +0.000 H 
ATOM    106  H4  UNL A   1       8.329   4.134  16.749  1.00  0.00    +0.000 H 
BRANCH    2    1
ATOM      1  C1  UNL A   1       6.817   2.964  17.663  1.00  0.00    +0.000 C 
ATOM    105  H3  UNL A   1       6.436   1.973  17.533  1.00  0.00    +0.000 H 
ATOM    103  H1  UNL A   1       6.119   3.669  17.263  1.00  0.00    +0.000 H 
ATOM    104  H2  UNL A   1       6.962   3.158  18.705  1.00  0.00    +0.000 H 
ENDBRANCH    2    1
ENDBRANCH    3    2
ENDBRANCH    4    3
ENDBRANCH    5    4
ENDBRANCH    6    5
ENDBRANCH    7    6
ENDBRANCH    8    7
ENDBRANCH   10    8
ENDBRANCH   11   10
ENDBRANCH   16   15
BRANCH   98   99
ATOM     99  N8  UNL A   1       6.779   6.890  19.375  1.00  0.00    +0.000 N 
ATOM    100  O5  UNL A   1       5.568   6.964  19.317  1.00  0.00    +0.000 O 
ATOM    101  O6  UNL A   1       7.433   6.285  18.328  1.00  0.00    +0.000 O 
ENDBRANCH   98   99
ENDBRANCH   20   19
BRANCH   20   21
ATOM    125  H23 UNL A   1       9.907  12.104  20.933  1.00  0.00    +0.000 H 
ATOM    123  H21 UNL A   1       8.594  11.422  20.003  1.00  0.00    +0.000 H 
ATOM    124  H22 UNL A   1      10.055  10.499  20.260  1.00  0.00    +0.000 H 
ATOM     21  C18 UNL A   1       9.379  11.204  20.697  1.00  0.00    +0.000 C 
ENDBRANCH   20   21
ENDBRANCH   22   20
ENDBRANCH   24   22
ENDBRANCH   25   24
ENDBRANCH   26   25
ENDBRANCH   27   26
ENDBRANCH   28   27
ENDBRANCH   29   28
ENDBRANCH   30   29
ENDBRANCH   31   30
ENDBRANCH   32   31
ENDBRANCH   34   32
ENDBRANCH   38   37
BRANCH   42   43
ATOM     43  C35 UNL A   1       9.526  10.872  27.738  1.00  0.00    +0.000 C 
ATOM     44  C36 UNL A   1      10.595  11.459  27.044  1.00  0.00    +0.000 C 
ATOM     45  F1  UNL A   1      11.330  10.728  26.194  1.00  0.00    +0.000 F 
ATOM     46  C37 UNL A   1      10.941  12.792  27.254  1.00  0.00    +0.000 C 
ATOM     47  F2  UNL A   1      11.999  13.316  26.618  1.00  0.00    +0.000 F 
ATOM     48  C38 UNL A   1      10.204  13.573  28.131  1.00  0.00    +0.000 C 
ATOM     49  F3  UNL A   1      10.535  14.856  28.327  1.00  0.00    +0.000 F 
ATOM     50  C39 UNL A   1       9.127  13.021  28.808  1.00  0.00    +0.000 C 
ATOM     51  F4  UNL A   1       8.405  13.779  29.646  1.00  0.00    +0.000 F 
ATOM     52  C40 UNL A   1       8.797  11.681  28.624  1.00  0.00    +0.000 C 
ATOM     53  F5  UNL A   1       7.761  11.173  29.308  1.00  0.00    +0.000 F 
ENDBRANCH   42   43
BRANCH   59   60
ATOM     65  C49 UNL A   1      14.000   3.257  31.134  1.00  0.00    +0.000 C 
ATOM     66  F8  UNL A   1      14.986   2.741  31.881  1.00  0.00    +0.000 F 
ATOM     67  C50 UNL A   1      12.898   3.839  31.743  1.00  0.00    +0.000 C 
ATOM     68  F9  UNL A   1      12.830   3.904  33.079  1.00  0.00    +0.000 F 
ATOM     69  C51 UNL A   1      11.864   4.355  30.968  1.00  0.00    +0.000 C 
ATOM     70  F10 UNL A   1      10.805   4.899  31.585  1.00  0.00    +0.000 F 
ATOM     60  C46 UNL A   1      11.925   4.318  29.567  1.00  0.00    +0.000 C 
ATOM     61  C47 UNL A   1      13.057   3.743  28.972  1.00  0.00    +0.000 C 
ATOM     62  F6  UNL A   1      13.154   3.670  27.635  1.00  0.00    +0.000 F 
ATOM     63  C48 UNL A   1      14.077   3.202  29.750  1.00  0.00    +0.000 C 
ATOM     64  F7  UNL A   1      15.127   2.615  29.161  1.00  0.00    +0.000 F 
ENDBRANCH   59   60
BRANCH   74   75
ATOM     75  C55 UNL A   1       6.821   1.465  25.779  1.00  0.00    +0.000 C 
ATOM     76  C56 UNL A   1       7.544   0.717  24.839  1.00  0.00    +0.000 C 
ATOM     77  F11 UNL A   1       8.575   1.277  24.190  1.00  0.00    +0.000 F 
ATOM     78  C57 UNL A   1       7.189  -0.596  24.538  1.00  0.00    +0.000 C 
ATOM     79  F12 UNL A   1       7.873  -1.275  23.607  1.00  0.00    +0.000 F 
ATOM     80  C58 UNL A   1       6.123  -1.195  25.190  1.00  0.00    +0.000 C 
ATOM     81  F13 UNL A   1       5.786  -2.461  24.906  1.00  0.00    +0.000 F 
ATOM     82  C59 UNL A   1       5.402  -0.481  26.135  1.00  0.00    +0.000 C 
ATOM     83  F14 UNL A   1       4.380  -1.062  26.778  1.00  0.00    +0.000 F 
ATOM     84  C60 UNL A   1       5.738   0.842  26.417  1.00  0.00    +0.000 C 
ATOM     85  F15 UNL A   1       5.020   1.513  27.329  1.00  0.00    +0.000 F 
ENDBRANCH   74   75
TORSDOF 28
ENDMDL
MODEL 7
REMARK VINA RESULT:      -7.0      3.520      8.920
ROOT
ATOM    142  H40 UNL A   1      15.173  47.347   4.124  1.00  0.00    +0.000 H 
ATOM    143  H41 UNL A   1      16.093  47.189   1.689  1.00  0.00    +0.000 H 
ATOM    144  H42 UNL A   1      15.836  51.190   2.727  1.00  0.00    +0.000 H 
ATOM    145  H43 UNL A   1      16.313  57.346   1.113  1.00  0.00    +0.000 H 
ATOM    146  H44 UNL A   1      15.474  57.492   3.506  1.00  0.00    +0.000 H 
ATOM    147  H45 UNL A   1      15.795  53.468   2.517  1.00  0.00    +0.000 H 
ATOM    148  H46 UNL A   1      17.615  53.338  -2.168  1.00  0.00    +0.000 H 
ATOM    149  H47 UNL A   1      17.399  50.791  -2.044  1.00  0.00    +0.000 H 
ATOM    150  H48 UNL A   1      14.312  51.437   7.496  1.00  0.00    +0.000 H 
ATOM    151  H49 UNL A   1      14.063  53.972   7.241  1.00  0.00    +0.000 H 
ATOM     38  C31 UNL A   1      14.989  54.967   4.737  1.00  0.00    +0.000 C 
ATOM     39  C32 UNL A   1      14.872  53.532   5.169  1.00  0.00    +0.000 C 
ATOM     40  N4  UNL A   1      15.160  52.440   4.504  1.00  0.00    +0.000 N 
ATOM     41  C33 UNL A   1      14.913  51.390   5.378  1.00  0.00    +0.000 C 
ATOM     42  C34 UNL A   1      15.000  50.058   5.145  1.00  0.00    +0.000 C 
ATOM     54  C41 UNL A   1      15.387  49.480   3.884  1.00  0.00    +0.000 C 
ATOM     55  C42 UNL A   1      15.440  48.145   3.526  1.00  0.00    +0.000 C 
ATOM     56  C43 UNL A   1      15.918  48.062   2.213  1.00  0.00    +0.000 C 
ATOM     57  C44 UNL A   1      16.117  49.346   1.736  1.00  0.00    +0.000 C 
ATOM     58  N5  UNL A   1      15.790  50.207   2.772  1.00  0.00    +0.000 N 
ATOM     59  C45 UNL A   1      16.571  49.761   0.434  1.00  0.00    +0.000 C 
ATOM     71  C52 UNL A   1      16.723  51.048   0.036  1.00  0.00    +0.000 C 
ATOM     72  N6  UNL A   1      16.491  52.215   0.751  1.00  0.00    +0.000 N 
ATOM     73  C53 UNL A   1      16.798  53.200  -0.059  1.00  0.00    +0.000 C 
ATOM     74  C54 UNL A   1      16.715  54.683   0.178  1.00  0.00    +0.000 C 
ATOM     86  C61 UNL A   1      16.251  55.136   1.358  1.00  0.00    +0.000 C 
ATOM     87  C62 UNL A   1      16.103  56.541   1.725  1.00  0.00    +0.000 C 
ATOM     88  C63 UNL A   1      15.650  56.619   2.986  1.00  0.00    +0.000 C 
ATOM     89  C64 UNL A   1      15.443  55.266   3.505  1.00  0.00    +0.000 C 
ATOM     90  N7  UNL A   1      15.825  54.451   2.469  1.00  0.00    +0.000 N 
ATOM     91  C65 UNL A   1      17.282  52.766  -1.376  1.00  0.00    +0.000 C 
ATOM     92  C66 UNL A   1      17.180  51.449  -1.279  1.00  0.00    +0.000 C 
ATOM     93  C67 UNL A   1      14.500  51.975   6.635  1.00  0.00    +0.000 C 
ATOM     94  C68 UNL A   1      14.395  53.293   6.539  1.00  0.00    +0.000 C 
ENDROOT
BRANCH   38   37
ATOM     34  C27 UNL A   1      14.116  58.205   7.407  1.00  0.00    +0.000 C 
ATOM     35  C28 UNL A   1      13.073  57.571   6.725  1.00  0.00    +0.000 C 
ATOM     36  C29 UNL A   1      13.349  56.493   5.880  1.00  0.00    +0.000 C 
ATOM     37  C30 UNL A   1      14.672  56.065   5.684  1.00  0.00    +0.000 C 
ATOM    140  H38 UNL A   1      12.103  57.898   6.845  1.00  0.00    +0.000 H 
ATOM    141  H39 UNL A   1      12.576  56.009   5.397  1.00  0.00    +0.000 H 
ATOM    152  H50 UNL A   1      16.683  56.392   6.249  1.00  0.00    +0.000 H 
ATOM    153  H51 UNL A   1      16.178  58.134   7.858  1.00  0.00    +0.000 H 
ATOM     95  C69 UNL A   1      15.706  56.695   6.392  1.00  0.00    +0.000 C 
ATOM     96  C70 UNL A   1      15.423  57.725   7.285  1.00  0.00    +0.000 C 
BRANCH   34   32
ATOM     33  O4  UNL A   1      14.656  60.203   8.509  1.00  0.00    +0.000 O 
ATOM     32  C26 UNL A   1      13.800  59.351   8.289  1.00  0.00    +0.000 C 
BRANCH   32   31
ATOM    139  H37 UNL A   1      12.325  58.775   9.514  1.00  0.00    +0.000 H 
ATOM     31  N3  UNL A   1      12.556  59.469   8.856  1.00  0.00    +0.000 N 
BRANCH   31   30
ATOM    137  H35 UNL A   1      10.593  60.099   8.985  1.00  0.00    +0.000 H 
ATOM    138  H36 UNL A   1      11.813  61.364   9.143  1.00  0.00    +0.000 H 
ATOM     30  C25 UNL A   1      11.528  60.472   8.624  1.00  0.00    +0.000 C 
BRANCH   30   29
ATOM     29  C24 UNL A   1      11.383  60.813   7.142  1.00  0.00    +0.000 C 
ATOM    135  H33 UNL A   1      11.479  61.873   7.033  1.00  0.00    +0.000 H 
ATOM    136  H34 UNL A   1      12.148  60.265   6.632  1.00  0.00    +0.000 H 
BRANCH   29   28
ATOM     28  C23 UNL A   1      10.054  60.385   6.511  1.00  0.00    +0.000 C 
ATOM    133  H31 UNL A   1       9.348  60.232   7.300  1.00  0.00    +0.000 H 
ATOM    134  H32 UNL A   1       9.785  61.169   5.836  1.00  0.00    +0.000 H 
BRANCH   28   27
ATOM     27  C22 UNL A   1      10.103  59.103   5.667  1.00  0.00    +0.000 C 
ATOM    132  H30 UNL A   1       9.615  58.347   6.247  1.00  0.00    +0.000 H 
ATOM    131  H29 UNL A   1      11.130  58.884   5.459  1.00  0.00    +0.000 H 
BRANCH   27   26
ATOM    129  H27 UNL A   1       9.104  58.173   4.036  1.00  0.00    +0.000 H 
ATOM     26  C21 UNL A   1       9.351  59.172   4.335  1.00  0.00    +0.000 C 
ATOM    130  H28 UNL A   1       8.485  59.779   4.497  1.00  0.00    +0.000 H 
BRANCH   26   25
ATOM     25  C20 UNL A   1      10.149  59.828   3.204  1.00  0.00    +0.000 C 
ATOM    127  H25 UNL A   1       9.479  60.396   2.592  1.00  0.00    +0.000 H 
ATOM    128  H26 UNL A   1      10.894  60.457   3.645  1.00  0.00    +0.000 H 
BRANCH   25   24
ATOM    126  H24 UNL A   1      10.241  58.420   1.705  1.00  0.00    +0.000 H 
ATOM     24  N2  UNL A   1      10.820  58.846   2.378  1.00  0.00    +0.000 N 
BRANCH   24   22
ATOM     22  C19 UNL A   1      12.108  58.408   2.365  1.00  0.00    +0.000 C 
ATOM     23  O3  UNL A   1      12.820  58.782   3.305  1.00  0.00    +0.000 O 
BRANCH   22   20
ATOM    122  H20 UNL A   1      13.754  57.493   1.462  1.00  0.00    +0.000 H 
ATOM     20  C17 UNL A   1      12.705  57.526   1.257  1.00  0.00    +0.000 C 
BRANCH   20   19
ATOM     97  C71 UNL A   1      12.105  55.327   0.163  1.00  0.00    +0.000 C 
ATOM     98  C72 UNL A   1      11.775  53.957   0.202  1.00  0.00    +0.000 C 
ATOM     16  C13 UNL A   1      11.705  53.259   1.422  1.00  0.00    +0.000 C 
ATOM     17  C14 UNL A   1      11.838  54.026   2.593  1.00  0.00    +0.000 C 
ATOM     18  C15 UNL A   1      12.078  55.403   2.553  1.00  0.00    +0.000 C 
ATOM     19  C16 UNL A   1      12.284  56.066   1.343  1.00  0.00    +0.000 C 
ATOM    120  H18 UNL A   1      11.757  53.559   3.509  1.00  0.00    +0.000 H 
ATOM    121  H19 UNL A   1      12.103  55.939   3.435  1.00  0.00    +0.000 H 
ATOM    154  H52 UNL A   1      12.218  55.795  -0.750  1.00  0.00    +0.000 H 
BRANCH   16   15
ATOM    102  C73 UNL A   1      10.307  51.205   1.810  1.00  0.00    +0.000 C 
ATOM     11  C8  UNL A   1      10.191  49.818   1.925  1.00  0.00    +0.000 C 
ATOM     12  C9  UNL A   1      11.293  48.985   1.757  1.00  0.00    +0.000 C 
ATOM     13  C10 UNL A   1      12.530  49.547   1.464  1.00  0.00    +0.000 C 
ATOM     14  C11 UNL A   1      12.662  50.936   1.371  1.00  0.00    +0.000 C 
ATOM     15  C12 UNL A   1      11.557  51.792   1.545  1.00  0.00    +0.000 C 
ATOM    117  H15 UNL A   1      11.193  47.962   1.849  1.00  0.00    +0.000 H 
ATOM    118  H16 UNL A   1      13.351  48.940   1.316  1.00  0.00    +0.000 H 
ATOM    119  H17 UNL A   1      13.588  51.343   1.169  1.00  0.00    +0.000 H 
ATOM    155  H53 UNL A   1       9.473  51.801   1.920  1.00  0.00    +0.000 H 
BRANCH   11   10
ATOM     10  O2  UNL A   1       9.005  49.211   2.373  1.00  0.00    +0.000 O 
BRANCH   10    8
ATOM      9  O1  UNL A   1       9.496  47.996   4.295  1.00  0.00    +0.000 O 
ATOM      8  C7  UNL A   1       8.870  48.870   3.710  1.00  0.00    +0.000 C 
BRANCH    8    7
ATOM    116  H14 UNL A   1       7.224  49.156   4.833  1.00  0.00    +0.000 H 
ATOM      7  N1  UNL A   1       7.941  49.637   4.360  1.00  0.00    +0.000 N 
BRANCH    7    6
ATOM    114  H12 UNL A   1       8.305  51.480   3.513  1.00  0.00    +0.000 H 
ATOM    115  H13 UNL A   1       6.885  51.384   4.559  1.00  0.00    +0.000 H 
ATOM      6  C6  UNL A   1       7.904  51.085   4.423  1.00  0.00    +0.000 C 
BRANCH    6    5
ATOM    113  H11 UNL A   1       8.569  50.945   6.407  1.00  0.00    +0.000 H 
ATOM      5  C5  UNL A   1       8.715  51.631   5.599  1.00  0.00    +0.000 C 
ATOM    112  H10 UNL A   1       8.365  52.619   5.813  1.00  0.00    +0.000 H 
BRANCH    5    4
ATOM      4  C4  UNL A   1      10.228  51.702   5.362  1.00  0.00    +0.000 C 
ATOM    110  H8  UNL A   1      10.674  50.847   5.823  1.00  0.00    +0.000 H 
ATOM    111  H9  UNL A   1      10.358  51.737   4.301  1.00  0.00    +0.000 H 
BRANCH    4    3
ATOM      3  C3  UNL A   1      10.924  52.952   5.912  1.00  0.00    +0.000 C 
ATOM    108  H6  UNL A   1      11.910  52.673   6.218  1.00  0.00    +0.000 H 
ATOM    109  H7  UNL A   1      10.906  53.671   5.121  1.00  0.00    +0.000 H 
BRANCH    3    2
ATOM      2  C2  UNL A   1      10.232  53.619   7.104  1.00  0.00    +0.000 C 
ATOM    107  H5  UNL A   1       9.781  52.841   7.685  1.00  0.00    +0.000 H 
ATOM    106  H4  UNL A   1       9.509  54.314   6.731  1.00  0.00    +0.000 H 
BRANCH    2    1
ATOM      1  C1  UNL A   1      11.193  54.364   8.017  1.00  0.00    +0.000 C 
ATOM    105  H3  UNL A   1      11.310  55.369   7.668  1.00  0.00    +0.000 H 
ATOM    103  H1  UNL A   1      12.143  53.873   8.013  1.00  0.00    +0.000 H 
ATOM    104  H2  UNL A   1      10.802  54.375   9.014  1.00  0.00    +0.000 H 
ENDBRANCH    2    1
ENDBRANCH    3    2
ENDBRANCH    4    3
ENDBRANCH    5    4
ENDBRANCH    6    5
ENDBRANCH    7    6
ENDBRANCH    8    7
ENDBRANCH   10    8
ENDBRANCH   11   10
ENDBRANCH   16   15
BRANCH   98   99
ATOM     99  N8  UNL A   1      11.454  53.315  -1.053  1.00  0.00    +0.000 N 
ATOM    100  O5  UNL A   1      12.322  52.787  -1.719  1.00  0.00    +0.000 O 
ATOM    101  O6  UNL A   1      10.196  53.406  -1.600  1.00  0.00    +0.000 O 
ENDBRANCH   98   99
ENDBRANCH   20   19
BRANCH   20   21
ATOM    125  H23 UNL A   1      11.762  58.718  -0.247  1.00  0.00    +0.000 H 
ATOM    123  H21 UNL A   1      12.681  57.371  -0.876  1.00  0.00    +0.000 H 
ATOM    124  H22 UNL A   1      13.508  58.787  -0.272  1.00  0.00    +0.000 H 
ATOM     21  C18 UNL A   1      12.660  58.147  -0.139  1.00  0.00    +0.000 C 
ENDBRANCH   20   21
ENDBRANCH   22   20
ENDBRANCH   24   22
ENDBRANCH   25   24
ENDBRANCH   26   25
ENDBRANCH   27   26
ENDBRANCH   28   27
ENDBRANCH   29   28
ENDBRANCH   30   29
ENDBRANCH   31   30
ENDBRANCH   32   31
ENDBRANCH   34   32
ENDBRANCH   38   37
BRANCH   42   43
ATOM     43  C35 UNL A   1      14.670  49.133   6.280  1.00  0.00    +0.000 C 
ATOM     44  C36 UNL A   1      15.651  48.700   7.186  1.00  0.00    +0.000 C 
ATOM     45  F1  UNL A   1      16.928  49.078   7.029  1.00  0.00    +0.000 F 
ATOM     46  C37 UNL A   1      15.331  47.840   8.232  1.00  0.00    +0.000 C 
ATOM     47  F2  UNL A   1      16.294  47.397   9.053  1.00  0.00    +0.000 F 
ATOM     48  C38 UNL A   1      14.021  47.425   8.418  1.00  0.00    +0.000 C 
ATOM     49  F3  UNL A   1      13.714  46.601   9.428  1.00  0.00    +0.000 F 
ATOM     50  C39 UNL A   1      13.030  47.861   7.551  1.00  0.00    +0.000 C 
ATOM     51  F4  UNL A   1      11.761  47.473   7.736  1.00  0.00    +0.000 F 
ATOM     52  C40 UNL A   1      13.352  48.698   6.485  1.00  0.00    +0.000 C 
ATOM     53  F5  UNL A   1      12.374  49.087   5.653  1.00  0.00    +0.000 F 
ENDBRANCH   42   43
BRANCH   59   60
ATOM     65  C49 UNL A   1      17.418  46.655  -2.432  1.00  0.00    +0.000 C 
ATOM     66  F8  UNL A   1      17.678  45.691  -3.326  1.00  0.00    +0.000 F 
ATOM     67  C50 UNL A   1      16.129  47.148  -2.296  1.00  0.00    +0.000 C 
ATOM     68  F9  UNL A   1      15.138  46.644  -3.045  1.00  0.00    +0.000 F 
ATOM     69  C51 UNL A   1      15.863  48.165  -1.384  1.00  0.00    +0.000 C 
ATOM     70  F10 UNL A   1      14.609  48.631  -1.285  1.00  0.00    +0.000 F 
ATOM     60  C46 UNL A   1      16.879  48.692  -0.574  1.00  0.00    +0.000 C 
ATOM     61  C47 UNL A   1      18.172  48.165  -0.714  1.00  0.00    +0.000 C 
ATOM     62  F6  UNL A   1      19.181  48.648   0.027  1.00  0.00    +0.000 F 
ATOM     63  C48 UNL A   1      18.441  47.168  -1.647  1.00  0.00    +0.000 C 
ATOM     64  F7  UNL A   1      19.692  46.713  -1.797  1.00  0.00    +0.000 F 
ENDBRANCH   59   60
BRANCH   74   75
ATOM     75  C55 UNL A   1      17.106  55.649  -0.881  1.00  0.00    +0.000 C 
ATOM     76  C56 UNL A   1      16.152  56.167  -1.768  1.00  0.00    +0.000 C 
ATOM     77  F11 UNL A   1      14.875  55.768  -1.684  1.00  0.00    +0.000 F 
ATOM     78  C57 UNL A   1      16.513  57.070  -2.765  1.00  0.00    +0.000 C 
ATOM     79  F12 UNL A   1      15.589  57.520  -3.624  1.00  0.00    +0.000 F 
ATOM     80  C58 UNL A   1      17.829  57.492  -2.878  1.00  0.00    +0.000 C 
ATOM     81  F13 UNL A   1      18.175  58.366  -3.833  1.00  0.00    +0.000 F 
ATOM     82  C59 UNL A   1      18.787  57.005  -2.002  1.00  0.00    +0.000 C 
ATOM     83  F14 UNL A   1      20.057  57.422  -2.098  1.00  0.00    +0.000 F 
ATOM     84  C60 UNL A   1      18.433  56.081  -1.021  1.00  0.00    +0.000 C 
ATOM     85  F15 UNL A   1      19.381  55.619  -0.193  1.00  0.00    +0.000 F 
ENDBRANCH   74   75
TORSDOF 28
ENDMDL
MODEL 8
REMARK VINA RESULT:      -6.8     48.429     53.508
ROOT
ATOM    142  H40 UNL A   1      59.241  14.950  13.327  1.00  0.00    +0.000 H 
ATOM    143  H41 UNL A   1      59.877  13.294  11.417  1.00  0.00    +0.000 H 
ATOM    144  H42 UNL A   1      57.237  16.093   9.887  1.00  0.00    +0.000 H 
ATOM    145  H43 UNL A   1      53.620  18.205   5.072  1.00  0.00    +0.000 H 
ATOM    146  H44 UNL A   1      53.050  19.852   6.920  1.00  0.00    +0.000 H 
ATOM    147  H45 UNL A   1      55.758  17.100   8.461  1.00  0.00    +0.000 H 
ATOM    148  H46 UNL A   1      56.911  14.019   4.658  1.00  0.00    +0.000 H 
ATOM    149  H47 UNL A   1      58.355  12.716   6.322  1.00  0.00    +0.000 H 
ATOM    150  H48 UNL A   1      56.246  19.403  13.518  1.00  0.00    +0.000 H 
ATOM    151  H49 UNL A   1      54.440  20.437  12.025  1.00  0.00    +0.000 H 
ATOM     38  C31 UNL A   1      54.351  19.327   9.402  1.00  0.00    +0.000 C 
ATOM     39  C32 UNL A   1      55.194  18.877  10.562  1.00  0.00    +0.000 C 
ATOM     40  N4  UNL A   1      56.056  17.892  10.627  1.00  0.00    +0.000 N 
ATOM     41  C33 UNL A   1      56.587  17.939  11.909  1.00  0.00    +0.000 C 
ATOM     42  C34 UNL A   1      57.475  17.095  12.487  1.00  0.00    +0.000 C 
ATOM     54  C41 UNL A   1      58.048  15.947  11.832  1.00  0.00    +0.000 C 
ATOM     55  C42 UNL A   1      58.903  14.993  12.353  1.00  0.00    +0.000 C 
ATOM     56  C43 UNL A   1      59.231  14.094  11.331  1.00  0.00    +0.000 C 
ATOM     57  C44 UNL A   1      58.542  14.460  10.187  1.00  0.00    +0.000 C 
ATOM     58  N5  UNL A   1      57.823  15.601  10.507  1.00  0.00    +0.000 N 
ATOM     59  C45 UNL A   1      58.539  13.821   8.897  1.00  0.00    +0.000 C 
ATOM     71  C52 UNL A   1      57.819  14.233   7.824  1.00  0.00    +0.000 C 
ATOM     72  N6  UNL A   1      56.958  15.316   7.718  1.00  0.00    +0.000 N 
ATOM     73  C53 UNL A   1      56.517  15.305   6.483  1.00  0.00    +0.000 C 
ATOM     74  C54 UNL A   1      55.537  16.232   5.816  1.00  0.00    +0.000 C 
ATOM     86  C61 UNL A   1      54.979  17.225   6.535  1.00  0.00    +0.000 C 
ATOM     87  C62 UNL A   1      54.007  18.190   6.029  1.00  0.00    +0.000 C 
ATOM     88  C63 UNL A   1      53.699  19.054   7.008  1.00  0.00    +0.000 C 
ATOM     89  C64 UNL A   1      54.427  18.682   8.222  1.00  0.00    +0.000 C 
ATOM     90  N7  UNL A   1      55.160  17.584   7.847  1.00  0.00    +0.000 N 
ATOM     91  C65 UNL A   1      57.070  14.223   5.657  1.00  0.00    +0.000 C 
ATOM     92  C66 UNL A   1      57.827  13.577   6.533  1.00  0.00    +0.000 C 
ATOM     93  C67 UNL A   1      55.990  19.079  12.572  1.00  0.00    +0.000 C 
ATOM     94  C68 UNL A   1      55.074  19.652  11.805  1.00  0.00    +0.000 C 
ENDROOT
BRANCH   38   37
ATOM     34  C27 UNL A   1      51.882  22.822   9.667  1.00  0.00    +0.000 C 
ATOM     35  C28 UNL A   1      51.294  21.576   9.426  1.00  0.00    +0.000 C 
ATOM     36  C29 UNL A   1      52.091  20.429   9.373  1.00  0.00    +0.000 C 
ATOM     37  C30 UNL A   1      53.483  20.525   9.524  1.00  0.00    +0.000 C 
ATOM    140  H38 UNL A   1      50.275  21.503   9.288  1.00  0.00    +0.000 H 
ATOM    141  H39 UNL A   1      51.653  19.507   9.221  1.00  0.00    +0.000 H 
ATOM    152  H50 UNL A   1      55.081  21.859   9.895  1.00  0.00    +0.000 H 
ATOM    153  H51 UNL A   1      53.675  23.814  10.176  1.00  0.00    +0.000 H 
ATOM     95  C69 UNL A   1      54.058  21.777   9.789  1.00  0.00    +0.000 C 
ATOM     96  C70 UNL A   1      53.256  22.910   9.908  1.00  0.00    +0.000 C 
BRANCH   34   32
ATOM     33  O4  UNL A   1      51.057  24.765  10.686  1.00  0.00    +0.000 O 
ATOM     32  C26 UNL A   1      51.018  24.023   9.709  1.00  0.00    +0.000 C 
BRANCH   32   31
ATOM    139  H37 UNL A   1      49.573  23.586   8.393  1.00  0.00    +0.000 H 
ATOM     31  N3  UNL A   1      50.180  24.313   8.662  1.00  0.00    +0.000 N 
BRANCH   31   30
ATOM    137  H35 UNL A   1      49.425  25.358   7.048  1.00  0.00    +0.000 H 
ATOM    138  H36 UNL A   1      49.642  26.293   8.530  1.00  0.00    +0.000 H 
ATOM     30  C25 UNL A   1      50.058  25.541   7.891  1.00  0.00    +0.000 C 
BRANCH   30   29
ATOM     29  C24 UNL A   1      51.412  26.040   7.392  1.00  0.00    +0.000 C 
ATOM    135  H33 UNL A   1      52.159  25.335   7.692  1.00  0.00    +0.000 H 
ATOM    136  H34 UNL A   1      51.325  26.137   6.330  1.00  0.00    +0.000 H 
BRANCH   29   28
ATOM     28  C23 UNL A   1      51.822  27.420   7.917  1.00  0.00    +0.000 C 
ATOM    133  H31 UNL A   1      52.813  27.342   8.312  1.00  0.00    +0.000 H 
ATOM    134  H32 UNL A   1      51.739  28.087   7.086  1.00  0.00    +0.000 H 
BRANCH   28   27
ATOM     27  C22 UNL A   1      50.922  28.005   9.016  1.00  0.00    +0.000 C 
ATOM    132  H30 UNL A   1      50.217  27.238   9.262  1.00  0.00    +0.000 H 
ATOM    131  H29 UNL A   1      50.468  28.894   8.632  1.00  0.00    +0.000 H 
BRANCH   27   26
ATOM    129  H27 UNL A   1      51.527  27.542  11.002  1.00  0.00    +0.000 H 
ATOM     26  C21 UNL A   1      51.638  28.362  10.322  1.00  0.00    +0.000 C 
ATOM    130  H28 UNL A   1      52.660  28.555  10.074  1.00  0.00    +0.000 H 
BRANCH   26   25
ATOM     25  C20 UNL A   1      51.099  29.625  10.999  1.00  0.00    +0.000 C 
ATOM    127  H25 UNL A   1      51.715  30.456  10.723  1.00  0.00    +0.000 H 
ATOM    128  H26 UNL A   1      50.089  29.771  10.677  1.00  0.00    +0.000 H 
BRANCH   25   24
ATOM    126  H24 UNL A   1      50.351  28.973  12.803  1.00  0.00    +0.000 H 
ATOM     24  N2  UNL A   1      51.098  29.504  12.442  1.00  0.00    +0.000 N 
BRANCH   24   22
ATOM     22  C19 UNL A   1      51.946  29.992  13.388  1.00  0.00    +0.000 C 
ATOM     23  O3  UNL A   1      51.557  30.988  14.008  1.00  0.00    +0.000 O 
BRANCH   22   20
ATOM    122  H20 UNL A   1      53.567  29.726  14.678  1.00  0.00    +0.000 H 
ATOM     20  C17 UNL A   1      53.332  29.398  13.688  1.00  0.00    +0.000 C 
BRANCH   20   19
ATOM     97  C71 UNL A   1      52.925  27.283  15.012  1.00  0.00    +0.000 C 
ATOM     98  C72 UNL A   1      52.856  25.881  15.144  1.00  0.00    +0.000 C 
ATOM     16  C13 UNL A   1      53.106  25.033  14.049  1.00  0.00    +0.000 C 
ATOM     17  C14 UNL A   1      53.563  25.648  12.870  1.00  0.00    +0.000 C 
ATOM     18  C15 UNL A   1      53.715  27.034  12.768  1.00  0.00    +0.000 C 
ATOM     19  C16 UNL A   1      53.336  27.881  13.810  1.00  0.00    +0.000 C 
ATOM    120  H18 UNL A   1      53.792  25.059  12.055  1.00  0.00    +0.000 H 
ATOM    121  H19 UNL A   1      54.117  27.438  11.908  1.00  0.00    +0.000 H 
ATOM    154  H52 UNL A   1      52.667  27.880  15.813  1.00  0.00    +0.000 H 
BRANCH   16   15
ATOM    102  C73 UNL A   1      53.680  22.702  14.797  1.00  0.00    +0.000 C 
ATOM     11  C8  UNL A   1      53.442  21.326  14.776  1.00  0.00    +0.000 C 
ATOM     12  C9  UNL A   1      52.393  20.785  14.039  1.00  0.00    +0.000 C 
ATOM     13  C10 UNL A   1      51.564  21.635  13.314  1.00  0.00    +0.000 C 
ATOM     14  C11 UNL A   1      51.809  23.012  13.309  1.00  0.00    +0.000 C 
ATOM     15  C12 UNL A   1      52.871  23.572  14.045  1.00  0.00    +0.000 C 
ATOM    117  H15 UNL A   1      52.232  19.766  14.030  1.00  0.00    +0.000 H 
ATOM    118  H16 UNL A   1      50.770  21.250  12.780  1.00  0.00    +0.000 H 
ATOM    119  H17 UNL A   1      51.198  23.631  12.754  1.00  0.00    +0.000 H 
ATOM    155  H53 UNL A   1      54.451  23.081  15.366  1.00  0.00    +0.000 H 
BRANCH   11   10
ATOM     10  O2  UNL A   1      54.337  20.412  15.360  1.00  0.00    +0.000 O 
BRANCH   10    8
ATOM      9  O1  UNL A   1      54.263  20.640  17.673  1.00  0.00    +0.000 O 
ATOM      8  C7  UNL A   1      54.870  20.679  16.612  1.00  0.00    +0.000 C 
BRANCH    8    7
ATOM    116  H14 UNL A   1      56.621  21.269  17.411  1.00  0.00    +0.000 H 
ATOM      7  N1  UNL A   1      56.201  20.994  16.564  1.00  0.00    +0.000 N 
BRANCH    7    6
ATOM    114  H12 UNL A   1      57.990  20.515  15.659  1.00  0.00    +0.000 H 
ATOM    115  H13 UNL A   1      56.557  20.402  14.633  1.00  0.00    +0.000 H 
ATOM      6  C6  UNL A   1      57.057  20.966  15.394  1.00  0.00    +0.000 C 
BRANCH    6    5
ATOM    113  H11 UNL A   1      58.387  22.490  14.843  1.00  0.00    +0.000 H 
ATOM      5  C5  UNL A   1      57.324  22.367  14.842  1.00  0.00    +0.000 C 
ATOM    112  H10 UNL A   1      56.815  23.072  15.464  1.00  0.00    +0.000 H 
BRANCH    5    4
ATOM      4  C4  UNL A   1      56.867  22.590  13.396  1.00  0.00    +0.000 C 
ATOM    110  H8  UNL A   1      56.091  21.885  13.183  1.00  0.00    +0.000 H 
ATOM    111  H9  UNL A   1      56.549  23.610  13.342  1.00  0.00    +0.000 H 
BRANCH    4    3
ATOM      3  C3  UNL A   1      57.954  22.432  12.327  1.00  0.00    +0.000 C 
ATOM    108  H6  UNL A   1      57.472  22.323  11.379  1.00  0.00    +0.000 H 
ATOM    109  H7  UNL A   1      58.567  23.306  12.401  1.00  0.00    +0.000 H 
BRANCH    3    2
ATOM      2  C2  UNL A   1      58.895  21.240  12.519  1.00  0.00    +0.000 C 
ATOM    107  H5  UNL A   1      58.295  20.409  12.826  1.00  0.00    +0.000 H 
ATOM    106  H4  UNL A   1      59.629  21.501  13.251  1.00  0.00    +0.000 H 
BRANCH    2    1
ATOM      1  C1  UNL A   1      59.612  20.829  11.242  1.00  0.00    +0.000 C 
ATOM    105  H3  UNL A   1      58.895  20.683  10.461  1.00  0.00    +0.000 H 
ATOM    103  H1  UNL A   1      60.146  19.918  11.410  1.00  0.00    +0.000 H 
ATOM    104  H2  UNL A   1      60.301  21.597  10.956  1.00  0.00    +0.000 H 
ENDBRANCH    2    1
ENDBRANCH    3    2
ENDBRANCH    4    3
ENDBRANCH    5    4
ENDBRANCH    6    5
ENDBRANCH    7    6
ENDBRANCH    8    7
ENDBRANCH   10    8
ENDBRANCH   11   10
ENDBRANCH   16   15
BRANCH   98   99
ATOM     99  N8  UNL A   1      52.578  25.350  16.460  1.00  0.00    +0.000 N 
ATOM    100  O5  UNL A   1      51.434  25.209  16.842  1.00  0.00    +0.000 O 
ATOM    101  O6  UNL A   1      53.587  25.128  17.367  1.00  0.00    +0.000 O 
ENDBRANCH   98   99
ENDBRANCH   20   19
BRANCH   20   21
ATOM    125  H23 UNL A   1      54.133  30.166  11.860  1.00  0.00    +0.000 H 
ATOM    123  H21 UNL A   1      55.299  29.321  12.851  1.00  0.00    +0.000 H 
ATOM    124  H22 UNL A   1      54.774  30.927  13.296  1.00  0.00    +0.000 H 
ATOM     21  C18 UNL A   1      54.470  29.998  12.862  1.00  0.00    +0.000 C 
ENDBRANCH   20   21
ENDBRANCH   22   20
ENDBRANCH   24   22
ENDBRANCH   25   24
ENDBRANCH   26   25
ENDBRANCH   27   26
ENDBRANCH   28   27
ENDBRANCH   29   28
ENDBRANCH   30   29
ENDBRANCH   31   30
ENDBRANCH   32   31
ENDBRANCH   34   32
ENDBRANCH   38   37
BRANCH   42   43
ATOM     43  C35 UNL A   1      57.884  17.383  13.903  1.00  0.00    +0.000 C 
ATOM     44  C36 UNL A   1      59.146  17.912  14.212  1.00  0.00    +0.000 C 
ATOM     45  F1  UNL A   1      60.040  18.138  13.238  1.00  0.00    +0.000 F 
ATOM     46  C37 UNL A   1      59.512  18.172  15.531  1.00  0.00    +0.000 C 
ATOM     47  F2  UNL A   1      60.742  18.628  15.806  1.00  0.00    +0.000 F 
ATOM     48  C38 UNL A   1      58.612  17.943  16.561  1.00  0.00    +0.000 C 
ATOM     49  F3  UNL A   1      58.964  18.198  17.828  1.00  0.00    +0.000 F 
ATOM     50  C39 UNL A   1      57.349  17.445  16.276  1.00  0.00    +0.000 C 
ATOM     51  F4  UNL A   1      56.474  17.236  17.270  1.00  0.00    +0.000 F 
ATOM     52  C40 UNL A   1      56.992  17.156  14.962  1.00  0.00    +0.000 C 
ATOM     53  F5  UNL A   1      55.769  16.657  14.722  1.00  0.00    +0.000 F 
ENDBRANCH   42   43
BRANCH   59   60
ATOM     65  C49 UNL A   1      60.950  10.274   8.461  1.00  0.00    +0.000 C 
ATOM     66  F8  UNL A   1      61.695   9.169   8.326  1.00  0.00    +0.000 F 
ATOM     67  C50 UNL A   1      59.728  10.212   9.116  1.00  0.00    +0.000 C 
ATOM     68  F9  UNL A   1      59.304   9.052   9.632  1.00  0.00    +0.000 F 
ATOM     69  C51 UNL A   1      58.943  11.356   9.237  1.00  0.00    +0.000 C 
ATOM     70  F10 UNL A   1      57.761  11.263   9.863  1.00  0.00    +0.000 F 
ATOM     60  C46 UNL A   1      59.378  12.587   8.724  1.00  0.00    +0.000 C 
ATOM     61  C47 UNL A   1      60.625  12.631   8.083  1.00  0.00    +0.000 C 
ATOM     62  F6  UNL A   1      61.076  13.782   7.562  1.00  0.00    +0.000 F 
ATOM     63  C48 UNL A   1      61.395  11.479   7.939  1.00  0.00    +0.000 C 
ATOM     64  F7  UNL A   1      62.561  11.534   7.281  1.00  0.00    +0.000 F 
ENDBRANCH   59   60
BRANCH   74   75
ATOM     75  C55 UNL A   1      55.157  16.047   4.393  1.00  0.00    +0.000 C 
ATOM     76  C56 UNL A   1      53.919  15.487   4.047  1.00  0.00    +0.000 C 
ATOM     77  F11 UNL A   1      53.076  15.084   5.009  1.00  0.00    +0.000 F 
ATOM     78  C57 UNL A   1      53.558  15.307   2.714  1.00  0.00    +0.000 C 
ATOM     79  F12 UNL A   1      52.386  14.733   2.412  1.00  0.00    +0.000 F 
ATOM     80  C58 UNL A   1      54.416  15.707   1.701  1.00  0.00    +0.000 C 
ATOM     81  F13 UNL A   1      54.065  15.541   0.419  1.00  0.00    +0.000 F 
ATOM     82  C59 UNL A   1      55.639  16.278   2.018  1.00  0.00    +0.000 C 
ATOM     83  F14 UNL A   1      56.464  16.680   1.042  1.00  0.00    +0.000 F 
ATOM     84  C60 UNL A   1      56.013  16.433   3.352  1.00  0.00    +0.000 C 
ATOM     85  F15 UNL A   1      57.206  16.980   3.631  1.00  0.00    +0.000 F 
ENDBRANCH   74   75
TORSDOF 28
ENDMDL
MODEL 9
REMARK VINA RESULT:      -6.8     19.018     24.637
ROOT
ATOM    142  H40 UNL A   1      12.516  29.706   1.251  1.00  0.00    +0.000 H 
ATOM    143  H41 UNL A   1      12.490  27.340   2.345  1.00  0.00    +0.000 H 
ATOM    144  H42 UNL A   1       8.579  28.457   1.566  1.00  0.00    +0.000 H 
ATOM    145  H43 UNL A   1       2.320  27.307   2.037  1.00  0.00    +0.000 H 
ATOM    146  H44 UNL A   1       2.354  29.587   0.915  1.00  0.00    +0.000 H 
ATOM    147  H45 UNL A   1       6.292  28.457   1.617  1.00  0.00    +0.000 H 
ATOM    148  H46 UNL A   1       6.069  23.877   3.679  1.00  0.00    +0.000 H 
ATOM    149  H47 UNL A   1       8.618  23.985   3.883  1.00  0.00    +0.000 H 
ATOM    150  H48 UNL A   1       8.693  32.891  -0.770  1.00  0.00    +0.000 H 
ATOM    151  H49 UNL A   1       6.145  33.022  -0.555  1.00  0.00    +0.000 H 
ATOM     38  C31 UNL A   1       4.964  30.662   0.521  1.00  0.00    +0.000 C 
ATOM     39  C32 UNL A   1       6.427  30.972   0.376  1.00  0.00    +0.000 C 
ATOM     40  N4  UNL A   1       7.466  30.246   0.707  1.00  0.00    +0.000 N 
ATOM     41  C33 UNL A   1       8.579  30.979   0.318  1.00  0.00    +0.000 C 
ATOM     42  C34 UNL A   1       9.890  30.684   0.496  1.00  0.00    +0.000 C 
ATOM     54  C41 UNL A   1      10.371  29.497   1.153  1.00  0.00    +0.000 C 
ATOM     55  C42 UNL A   1      11.676  29.140   1.445  1.00  0.00    +0.000 C 
ATOM     56  C43 UNL A   1      11.660  27.876   2.047  1.00  0.00    +0.000 C 
ATOM     57  C44 UNL A   1      10.343  27.468   2.175  1.00  0.00    +0.000 C 
ATOM     58  N5  UNL A   1       9.563  28.470   1.620  1.00  0.00    +0.000 N 
ATOM     59  C45 UNL A   1       9.831  26.255   2.760  1.00  0.00    +0.000 C 
ATOM     71  C52 UNL A   1       8.518  25.935   2.865  1.00  0.00    +0.000 C 
ATOM     72  N6  UNL A   1       7.408  26.661   2.454  1.00  0.00    +0.000 N 
ATOM     73  C53 UNL A   1       6.365  25.927   2.760  1.00  0.00    +0.000 C 
ATOM     74  C54 UNL A   1       4.904  26.229   2.568  1.00  0.00    +0.000 C 
ATOM     86  C61 UNL A   1       4.541  27.408   2.028  1.00  0.00    +0.000 C 
ATOM     87  C62 UNL A   1       3.168  27.843   1.793  1.00  0.00    +0.000 C 
ATOM     88  C63 UNL A   1       3.186  29.052   1.211  1.00  0.00    +0.000 C 
ATOM     89  C64 UNL A   1       4.574  29.492   1.062  1.00  0.00    +0.000 C 
ATOM     90  N7  UNL A   1       5.308  28.453   1.576  1.00  0.00    +0.000 N 
ATOM     91  C65 UNL A   1       6.698  24.638   3.381  1.00  0.00    +0.000 C 
ATOM     92  C66 UNL A   1       8.019  24.710   3.457  1.00  0.00    +0.000 C 
ATOM     93  C67 UNL A   1       8.091  32.183  -0.319  1.00  0.00    +0.000 C 
ATOM     94  C68 UNL A   1       6.769  32.258  -0.250  1.00  0.00    +0.000 C 
ENDROOT
BRANCH   38   37
ATOM     34  C27 UNL A   1       1.938  33.316  -0.954  1.00  0.00    +0.000 C 
ATOM     35  C28 UNL A   1       2.433  33.484   0.343  1.00  0.00    +0.000 C 
ATOM     36  C29 UNL A   1       3.444  32.643   0.816  1.00  0.00    +0.000 C 
ATOM     37  C30 UNL A   1       3.940  31.607   0.010  1.00  0.00    +0.000 C 
ATOM    140  H38 UNL A   1       2.053  34.227   0.949  1.00  0.00    +0.000 H 
ATOM    141  H39 UNL A   1       3.827  32.784   1.764  1.00  0.00    +0.000 H 
ATOM    152  H50 UNL A   1       3.806  30.701  -1.897  1.00  0.00    +0.000 H 
ATOM    153  H51 UNL A   1       2.193  32.282  -2.777  1.00  0.00    +0.000 H 
ATOM     95  C69 UNL A   1       3.452  31.464  -1.298  1.00  0.00    +0.000 C 
ATOM     96  C70 UNL A   1       2.493  32.345  -1.792  1.00  0.00    +0.000 C 
BRANCH   34   32
ATOM     33  O4  UNL A   1       0.616  35.247  -0.813  1.00  0.00    +0.000 O 
ATOM     32  C26 UNL A   1       0.861  34.214  -1.429  1.00  0.00    +0.000 C 
BRANCH   32   31
ATOM    139  H37 UNL A   1      -0.697  33.410  -2.395  1.00  0.00    +0.000 H 
ATOM     31  N3  UNL A   1       0.141  33.901  -2.554  1.00  0.00    +0.000 N 
BRANCH   31   30
ATOM    137  H35 UNL A   1       1.063  33.413  -4.337  1.00  0.00    +0.000 H 
ATOM    138  H36 UNL A   1      -0.491  34.240  -4.480  1.00  0.00    +0.000 H 
ATOM     30  C25 UNL A   1       0.437  34.190  -3.949  1.00  0.00    +0.000 C 
BRANCH   30   29
ATOM     29  C24 UNL A   1       1.151  35.529  -4.118  1.00  0.00    +0.000 C 
ATOM    135  H33 UNL A   1       0.459  36.223  -4.548  1.00  0.00    +0.000 H 
ATOM    136  H34 UNL A   1       1.486  35.816  -3.143  1.00  0.00    +0.000 H 
BRANCH   29   28
ATOM     28  C23 UNL A   1       2.398  35.486  -5.007  1.00  0.00    +0.000 C 
ATOM    133  H31 UNL A   1       3.201  35.077  -4.429  1.00  0.00    +0.000 H 
ATOM    134  H32 UNL A   1       2.132  34.894  -5.856  1.00  0.00    +0.000 H 
BRANCH   28   27
ATOM     27  C22 UNL A   1       2.861  36.839  -5.566  1.00  0.00    +0.000 C 
ATOM    132  H30 UNL A   1       2.965  37.489  -4.722  1.00  0.00    +0.000 H 
ATOM    131  H29 UNL A   1       2.130  37.171  -6.273  1.00  0.00    +0.000 H 
BRANCH   27   26
ATOM    129  H27 UNL A   1       4.568  35.810  -6.309  1.00  0.00    +0.000 H 
ATOM     26  C21 UNL A   1       4.225  36.823  -6.263  1.00  0.00    +0.000 C 
ATOM    130  H28 UNL A   1       4.084  37.253  -7.233  1.00  0.00    +0.000 H 
BRANCH   26   25
ATOM     25  C20 UNL A   1       5.293  37.662  -5.556  1.00  0.00    +0.000 C 
ATOM    127  H25 UNL A   1       5.893  38.153  -6.294  1.00  0.00    +0.000 H 
ATOM    128  H26 UNL A   1       4.796  38.373  -4.929  1.00  0.00    +0.000 H 
BRANCH   25   24
ATOM    126  H24 UNL A   1       5.690  36.418  -3.965  1.00  0.00    +0.000 H 
ATOM     24  N2  UNL A   1       6.151  36.848  -4.721  1.00  0.00    +0.000 N 
BRANCH   24   22
ATOM     22  C19 UNL A   1       7.482  36.572  -4.795  1.00  0.00    +0.000 C 
ATOM     23  O3  UNL A   1       8.229  37.306  -4.138  1.00  0.00    +0.000 O 
BRANCH   22   20
ATOM    122  H20 UNL A   1       9.138  35.570  -5.580  1.00  0.00    +0.000 H 
ATOM     20  C17 UNL A   1       8.078  35.446  -5.655  1.00  0.00    +0.000 C 
BRANCH   20   19
ATOM     97  C71 UNL A   1       7.010  33.158  -5.774  1.00  0.00    +0.000 C 
ATOM     98  C72 UNL A   1       6.817  31.840  -5.313  1.00  0.00    +0.000 C 
ATOM     16  C13 UNL A   1       7.528  31.344  -4.204  1.00  0.00    +0.000 C 
ATOM     17  C14 UNL A   1       8.321  32.268  -3.503  1.00  0.00    +0.000 C 
ATOM     18  C15 UNL A   1       8.442  33.601  -3.911  1.00  0.00    +0.000 C 
ATOM     19  C16 UNL A   1       7.845  34.053  -5.088  1.00  0.00    +0.000 C 
ATOM    120  H18 UNL A   1       8.830  31.955  -2.663  1.00  0.00    +0.000 H 
ATOM    121  H19 UNL A   1       8.981  34.262  -3.330  1.00  0.00    +0.000 H 
ATOM    154  H52 UNL A   1       6.528  33.470  -6.631  1.00  0.00    +0.000 H 
BRANCH   16   15
ATOM    102  C73 UNL A   1       8.549  29.046  -4.182  1.00  0.00    +0.000 C 
ATOM     11  C8  UNL A   1       8.533  27.714  -3.766  1.00  0.00    +0.000 C 
ATOM     12  C9  UNL A   1       7.537  27.232  -2.923  1.00  0.00    +0.000 C 
ATOM     13  C10 UNL A   1       6.542  28.099  -2.484  1.00  0.00    +0.000 C 
ATOM     14  C11 UNL A   1       6.536  29.429  -2.914  1.00  0.00    +0.000 C 
ATOM     15  C12 UNL A   1       7.534  29.928  -3.773  1.00  0.00    +0.000 C 
ATOM    117  H15 UNL A   1       7.536  26.244  -2.627  1.00  0.00    +0.000 H 
ATOM    118  H16 UNL A   1       5.809  27.760  -1.841  1.00  0.00    +0.000 H 
ATOM    119  H17 UNL A   1       5.783  30.059  -2.595  1.00  0.00    +0.000 H 
ATOM    155  H53 UNL A   1       9.309  29.385  -4.792  1.00  0.00    +0.000 H 
BRANCH   11   10
ATOM     10  O2  UNL A   1       9.419  26.762  -4.302  1.00  0.00    +0.000 O 
BRANCH   10    8
ATOM      9  O1  UNL A   1      11.568  27.436  -3.719  1.00  0.00    +0.000 O 
ATOM      8  C7  UNL A   1      10.735  27.116  -4.557  1.00  0.00    +0.000 C 
BRANCH    8    7
ATOM    116  H14 UNL A   1      11.987  27.238  -6.128  1.00  0.00    +0.000 H 
ATOM      7  N1  UNL A   1      11.048  27.067  -5.888  1.00  0.00    +0.000 N 
BRANCH    7    6
ATOM    114  H12 UNL A   1      10.676  26.292  -7.762  1.00  0.00    +0.000 H 
ATOM    115  H13 UNL A   1       9.346  26.175  -6.605  1.00  0.00    +0.000 H 
ATOM      6  C6  UNL A   1      10.137  26.790  -6.982  1.00  0.00    +0.000 C 
BRANCH    6    5
ATOM    113  H11 UNL A   1       8.711  28.324  -6.890  1.00  0.00    +0.000 H 
ATOM      5  C5  UNL A   1       9.513  28.064  -7.549  1.00  0.00    +0.000 C 
ATOM    112  H10 UNL A   1       9.191  27.861  -8.549  1.00  0.00    +0.000 H 
BRANCH    5    4
ATOM      4  C4  UNL A   1      10.447  29.279  -7.589  1.00  0.00    +0.000 C 
ATOM    110  H8  UNL A   1      11.298  29.061  -6.978  1.00  0.00    +0.000 H 
ATOM    111  H9  UNL A   1      10.686  29.434  -8.620  1.00  0.00    +0.000 H 
BRANCH    4    3
ATOM      3  C3  UNL A   1       9.838  30.597  -7.097  1.00  0.00    +0.000 C 
ATOM    108  H6  UNL A   1       9.583  31.183  -7.954  1.00  0.00    +0.000 H 
ATOM    109  H7  UNL A   1       8.997  30.326  -6.494  1.00  0.00    +0.000 H 
BRANCH    3    2
ATOM      2  C2  UNL A   1      10.744  31.444  -6.199  1.00  0.00    +0.000 C 
ATOM    107  H5  UNL A   1      10.240  31.563  -5.263  1.00  0.00    +0.000 H 
ATOM    106  H4  UNL A   1      10.922  32.381  -6.683  1.00  0.00    +0.000 H 
BRANCH    2    1
ATOM      1  C1  UNL A   1      12.086  30.789  -5.908  1.00  0.00    +0.000 C 
ATOM    105  H3  UNL A   1      11.987  29.727  -5.982  1.00  0.00    +0.000 H 
ATOM    103  H1  UNL A   1      12.402  31.049  -4.919  1.00  0.00    +0.000 H 
ATOM    104  H2  UNL A   1      12.811  31.132  -6.615  1.00  0.00    +0.000 H 
ENDBRANCH    2    1
ENDBRANCH    3    2
ENDBRANCH    4    3
ENDBRANCH    5    4
ENDBRANCH    6    5
ENDBRANCH    7    6
ENDBRANCH    8    7
ENDBRANCH   10    8
ENDBRANCH   11   10
ENDBRANCH   16   15
BRANCH   98   99
ATOM     99  N8  UNL A   1       5.819  31.039  -5.988  1.00  0.00    +0.000 N 
ATOM    100  O5  UNL A   1       4.661  31.057  -5.624  1.00  0.00    +0.000 O 
ATOM    101  O6  UNL A   1       6.171  30.131  -6.958  1.00  0.00    +0.000 O 
ENDBRANCH   98   99
ENDBRANCH   20   19
BRANCH   20   21
ATOM    125  H23 UNL A   1       7.416  36.564  -7.353  1.00  0.00    +0.000 H 
ATOM    123  H21 UNL A   1       7.154  34.842  -7.487  1.00  0.00    +0.000 H 
ATOM    124  H22 UNL A   1       8.762  35.499  -7.681  1.00  0.00    +0.000 H 
ATOM     21  C18 UNL A   1       7.834  35.599  -7.157  1.00  0.00    +0.000 C 
ENDBRANCH   20   21
ENDBRANCH   22   20
ENDBRANCH   24   22
ENDBRANCH   25   24
ENDBRANCH   26   25
ENDBRANCH   27   26
ENDBRANCH   28   27
ENDBRANCH   29   28
ENDBRANCH   30   29
ENDBRANCH   31   30
ENDBRANCH   32   31
ENDBRANCH   34   32
ENDBRANCH   38   37
BRANCH   42   43
ATOM     43  C35 UNL A   1      10.898  31.665  -0.029  1.00  0.00    +0.000 C 
ATOM     44  C36 UNL A   1      11.544  32.580   0.817  1.00  0.00    +0.000 C 
ATOM     45  F1  UNL A   1      11.242  32.622   2.122  1.00  0.00    +0.000 F 
ATOM     46  C37 UNL A   1      12.475  33.486   0.315  1.00  0.00    +0.000 C 
ATOM     47  F2  UNL A   1      13.041  34.385   1.133  1.00  0.00    +0.000 F 
ATOM     48  C38 UNL A   1      12.806  33.472  -1.032  1.00  0.00    +0.000 C 
ATOM     49  F3  UNL A   1      13.705  34.341  -1.512  1.00  0.00    +0.000 F 
ATOM     50  C39 UNL A   1      12.198  32.559  -1.881  1.00  0.00    +0.000 C 
ATOM     51  F4  UNL A   1      12.526  32.534  -3.181  1.00  0.00    +0.000 F 
ATOM     52  C40 UNL A   1      11.244  31.672  -1.388  1.00  0.00    +0.000 C 
ATOM     53  F5  UNL A   1      10.662  30.814  -2.240  1.00  0.00    +0.000 F 
ENDBRANCH   42   43
BRANCH   59   60
ATOM     65  C49 UNL A   1      12.639  23.396   4.348  1.00  0.00    +0.000 C 
ATOM     66  F8  UNL A   1      13.514  22.508   4.837  1.00  0.00    +0.000 F 
ATOM     67  C50 UNL A   1      12.326  23.392   2.997  1.00  0.00    +0.000 C 
ATOM     68  F9  UNL A   1      12.884  22.484   2.185  1.00  0.00    +0.000 F 
ATOM     69  C51 UNL A   1      11.434  24.329   2.484  1.00  0.00    +0.000 C 
ATOM     70  F10 UNL A   1      11.162  24.309   1.171  1.00  0.00    +0.000 F 
ATOM     60  C46 UNL A   1      10.821  25.275   3.319  1.00  0.00    +0.000 C 
ATOM     61  C47 UNL A   1      11.137  25.249   4.686  1.00  0.00    +0.000 C 
ATOM     62  F6  UNL A   1      10.589  26.143   5.522  1.00  0.00    +0.000 F 
ATOM     63  C48 UNL A   1      12.051  24.328   5.191  1.00  0.00    +0.000 C 
ATOM     64  F7  UNL A   1      12.374  24.353   6.491  1.00  0.00    +0.000 F 
ENDBRANCH   59   60
BRANCH   74   75
ATOM     75  C55 UNL A   1       3.862  25.260   2.992  1.00  0.00    +0.000 C 
ATOM     76  C56 UNL A   1       3.307  24.356   2.075  1.00  0.00    +0.000 C 
ATOM     77  F11 UNL A   1       3.695  24.382   0.792  1.00  0.00    +0.000 F 
ATOM     78  C57 UNL A   1       2.326  23.447   2.466  1.00  0.00    +0.000 C 
ATOM     79  F12 UNL A   1       1.784  22.621   1.561  1.00  0.00    +0.000 F 
ATOM     80  C58 UNL A   1       1.901  23.405   3.785  1.00  0.00    +0.000 C 
ATOM     81  F13 UNL A   1       0.963  22.526   4.162  1.00  0.00    +0.000 F 
ATOM     82  C59 UNL A   1       2.447  24.279   4.712  1.00  0.00    +0.000 C 
ATOM     83  F14 UNL A   1       2.050  24.232   5.992  1.00  0.00    +0.000 F 
ATOM     84  C60 UNL A   1       3.408  25.208   4.318  1.00  0.00    +0.000 C 
ATOM     85  F15 UNL A   1       3.914  26.047   5.234  1.00  0.00    +0.000 F 
ENDBRANCH   74   75
TORSDOF 28
ENDMDL
MODEL 10
REMARK VINA RESULT:      -6.8     59.142     63.808
ROOT
ATOM    142  H40 UNL A   1      41.171  14.382  49.814  1.00  0.00    +0.000 H 
ATOM    143  H41 UNL A   1      41.859  13.048  47.683  1.00  0.00    +0.000 H 
ATOM    144  H42 UNL A   1      43.801  16.704  47.612  1.00  0.00    +0.000 H 
ATOM    145  H43 UNL A   1      47.522  20.913  44.584  1.00  0.00    +0.000 H 
ATOM    146  H44 UNL A   1      46.897  22.184  46.693  1.00  0.00    +0.000 H 
ATOM    147  H45 UNL A   1      44.995  18.490  46.825  1.00  0.00    +0.000 H 
ATOM    148  H46 UNL A   1      46.453  16.036  42.687  1.00  0.00    +0.000 H 
ATOM    149  H47 UNL A   1      44.898  14.140  43.418  1.00  0.00    +0.000 H 
ATOM    150  H48 UNL A   1      42.656  19.125  51.849  1.00  0.00    +0.000 H 
ATOM    151  H49 UNL A   1      43.813  21.212  50.921  1.00  0.00    +0.000 H 
ATOM     38  C31 UNL A   1      45.128  20.778  48.430  1.00  0.00    +0.000 C 
ATOM     39  C32 UNL A   1      44.256  19.817  49.188  1.00  0.00    +0.000 C 
ATOM     40  N4  UNL A   1      43.909  18.592  48.879  1.00  0.00    +0.000 N 
ATOM     41  C33 UNL A   1      43.134  18.140  49.939  1.00  0.00    +0.000 C 
ATOM     42  C34 UNL A   1      42.489  16.955  50.070  1.00  0.00    +0.000 C 
ATOM     54  C41 UNL A   1      42.502  15.912  49.077  1.00  0.00    +0.000 C 
ATOM     55  C42 UNL A   1      41.825  14.705  49.085  1.00  0.00    +0.000 C 
ATOM     56  C43 UNL A   1      42.182  13.996  47.932  1.00  0.00    +0.000 C 
ATOM     57  C44 UNL A   1      43.042  14.781  47.182  1.00  0.00    +0.000 C 
ATOM     58  N5  UNL A   1      43.232  15.953  47.898  1.00  0.00    +0.000 N 
ATOM     59  C45 UNL A   1      43.647  14.487  45.909  1.00  0.00    +0.000 C 
ATOM     71  C52 UNL A   1      44.470  15.322  45.226  1.00  0.00    +0.000 C 
ATOM     72  N6  UNL A   1      44.904  16.594  45.573  1.00  0.00    +0.000 N 
ATOM     73  C53 UNL A   1      45.693  16.982  44.601  1.00  0.00    +0.000 C 
ATOM     74  C54 UNL A   1      46.424  18.287  44.435  1.00  0.00    +0.000 C 
ATOM     86  C61 UNL A   1      46.278  19.245  45.370  1.00  0.00    +0.000 C 
ATOM     87  C62 UNL A   1      46.913  20.559  45.339  1.00  0.00    +0.000 C 
ATOM     88  C63 UNL A   1      46.574  21.235  46.447  1.00  0.00    +0.000 C 
ATOM     89  C64 UNL A   1      45.670  20.412  47.253  1.00  0.00    +0.000 C 
ATOM     90  N7  UNL A   1      45.551  19.249  46.534  1.00  0.00    +0.000 N 
ATOM     91  C65 UNL A   1      45.866  15.987  43.533  1.00  0.00    +0.000 C 
ATOM     92  C66 UNL A   1      45.069  15.011  43.944  1.00  0.00    +0.000 C 
ATOM     93  C67 UNL A   1      43.103  19.201  50.922  1.00  0.00    +0.000 C 
ATOM     94  C68 UNL A   1      43.726  20.283  50.478  1.00  0.00    +0.000 C 
ENDROOT
BRANCH   38   37
ATOM     34  C27 UNL A   1      46.152  24.625  50.021  1.00  0.00    +0.000 C 
ATOM     35  C28 UNL A   1      45.024  24.492  49.205  1.00  0.00    +0.000 C 
ATOM     36  C29 UNL A   1      44.666  23.234  48.712  1.00  0.00    +0.000 C 
ATOM     37  C30 UNL A   1      45.454  22.108  49.002  1.00  0.00    +0.000 C 
ATOM    140  H38 UNL A   1      44.457  25.320  48.968  1.00  0.00    +0.000 H 
ATOM    141  H39 UNL A   1      43.819  23.132  48.132  1.00  0.00    +0.000 H 
ATOM    152  H50 UNL A   1      47.159  21.431  50.054  1.00  0.00    +0.000 H 
ATOM    153  H51 UNL A   1      47.663  23.578  51.060  1.00  0.00    +0.000 H 
ATOM     95  C69 UNL A   1      46.569  22.251  49.840  1.00  0.00    +0.000 C 
ATOM     96  C70 UNL A   1      46.886  23.493  50.386  1.00  0.00    +0.000 C 
BRANCH   34   32
ATOM     33  O4  UNL A   1      47.642  26.167  50.968  1.00  0.00    +0.000 O 
ATOM     32  C26 UNL A   1      46.515  25.969  50.523  1.00  0.00    +0.000 C 
BRANCH   32   31
ATOM    139  H37 UNL A   1      45.502  27.438  49.616  1.00  0.00    +0.000 H 
ATOM     31  N3  UNL A   1      45.604  26.994  50.488  1.00  0.00    +0.000 N 
BRANCH   31   30
ATOM    137  H35 UNL A   1      45.395  27.942  52.311  1.00  0.00    +0.000 H 
ATOM    138  H36 UNL A   1      44.121  28.263  51.132  1.00  0.00    +0.000 H 
ATOM     30  C25 UNL A   1      44.767  27.520  51.555  1.00  0.00    +0.000 C 
BRANCH   30   29
ATOM     29  C24 UNL A   1      43.893  26.438  52.185  1.00  0.00    +0.000 C 
ATOM    135  H33 UNL A   1      42.898  26.821  52.272  1.00  0.00    +0.000 H 
ATOM    136  H34 UNL A   1      43.963  25.584  51.544  1.00  0.00    +0.000 H 
BRANCH   29   28
ATOM     28  C23 UNL A   1      44.348  25.973  53.573  1.00  0.00    +0.000 C 
ATOM    133  H31 UNL A   1      45.104  26.647  53.916  1.00  0.00    +0.000 H 
ATOM    134  H32 UNL A   1      43.468  25.963  54.181  1.00  0.00    +0.000 H 
BRANCH   28   27
ATOM     27  C22 UNL A   1      44.920  24.550  53.640  1.00  0.00    +0.000 C 
ATOM    132  H30 UNL A   1      44.972  24.298  54.679  1.00  0.00    +0.000 H 
ATOM    131  H29 UNL A   1      45.874  24.554  53.155  1.00  0.00    +0.000 H 
BRANCH   27   26
ATOM    129  H27 UNL A   1      43.123  23.910  52.700  1.00  0.00    +0.000 H 
ATOM     26  C21 UNL A   1      44.057  23.469  52.982  1.00  0.00    +0.000 C 
ATOM    130  H28 UNL A   1      44.607  23.100  52.142  1.00  0.00    +0.000 H 
BRANCH   26   25
ATOM     25  C20 UNL A   1      43.769  22.268  53.887  1.00  0.00    +0.000 C 
ATOM    127  H25 UNL A   1      43.944  22.550  54.904  1.00  0.00    +0.000 H 
ATOM    128  H26 UNL A   1      42.750  21.977  53.739  1.00  0.00    +0.000 H 
BRANCH   25   24
ATOM    126  H24 UNL A   1      44.390  20.696  52.711  1.00  0.00    +0.000 H 
ATOM     24  N2  UNL A   1      44.612  21.136  53.564  1.00  0.00    +0.000 N 
BRANCH   24   22
ATOM     22  C19 UNL A   1      45.657  20.571  54.229  1.00  0.00    +0.000 C 
ATOM     23  O3  UNL A   1      45.378  19.973  55.274  1.00  0.00    +0.000 O 
BRANCH   22   20
ATOM    122  H20 UNL A   1      47.685  20.178  54.534  1.00  0.00    +0.000 H 
ATOM     20  C17 UNL A   1      47.121  20.669  53.770  1.00  0.00    +0.000 C 
BRANCH   20   19
ATOM     97  C71 UNL A   1      48.505  20.220  51.703  1.00  0.00    +0.000 C 
ATOM     98  C72 UNL A   1      48.859  19.454  50.574  1.00  0.00    +0.000 C 
ATOM     16  C13 UNL A   1      48.206  18.241  50.283  1.00  0.00    +0.000 C 
ATOM     17  C14 UNL A   1      47.100  17.915  51.087  1.00  0.00    +0.000 C 
ATOM     18  C15 UNL A   1      46.695  18.724  52.154  1.00  0.00    +0.000 C 
ATOM     19  C16 UNL A   1      47.428  19.852  52.524  1.00  0.00    +0.000 C 
ATOM    120  H18 UNL A   1      46.571  17.053  50.884  1.00  0.00    +0.000 H 
ATOM    121  H19 UNL A   1      45.839  18.482  52.676  1.00  0.00    +0.000 H 
ATOM    154  H52 UNL A   1      49.048  21.068  51.930  1.00  0.00    +0.000 H 
BRANCH   16   15
ATOM    102  C73 UNL A   1      49.732  16.427  49.445  1.00  0.00    +0.000 C 
ATOM     11  C8  UNL A   1      50.122  15.533  48.446  1.00  0.00    +0.000 C 
ATOM     12  C9  UNL A   1      49.430  15.448  47.242  1.00  0.00    +0.000 C 
ATOM     13  C10 UNL A   1      48.325  16.266  47.035  1.00  0.00    +0.000 C 
ATOM     14  C11 UNL A   1      47.941  17.182  48.020  1.00  0.00    +0.000 C 
ATOM     15  C12 UNL A   1      48.636  17.283  49.240  1.00  0.00    +0.000 C 
ATOM    117  H15 UNL A   1      49.733  14.785  46.511  1.00  0.00    +0.000 H 
ATOM    118  H16 UNL A   1      47.790  16.198  46.155  1.00  0.00    +0.000 H 
ATOM    119  H17 UNL A   1      47.129  17.795  47.848  1.00  0.00    +0.000 H 
ATOM    155  H53 UNL A   1      50.249  16.458  50.336  1.00  0.00    +0.000 H 
BRANCH   11   10
ATOM     10  O2  UNL A   1      51.318  14.799  48.538  1.00  0.00    +0.000 O 
BRANCH   10    8
ATOM      9  O1  UNL A   1      51.384  14.059  50.742  1.00  0.00    +0.000 O 
ATOM      8  C7  UNL A   1      51.466  13.851  49.539  1.00  0.00    +0.000 C 
BRANCH    8    7
ATOM    116  H14 UNL A   1      52.608  12.223  49.223  1.00  0.00    +0.000 H 
ATOM      7  N1  UNL A   1      51.714  12.597  49.048  1.00  0.00    +0.000 N 
BRANCH    7    6
ATOM    114  H12 UNL A   1      50.455  12.310  47.442  1.00  0.00    +0.000 H 
ATOM    115  H13 UNL A   1      51.318  10.876  48.006  1.00  0.00    +0.000 H 
ATOM      6  C6  UNL A   1      50.796  11.764  48.297  1.00  0.00    +0.000 C 
BRANCH    6    5
ATOM    113  H11 UNL A   1      49.756  11.723  50.117  1.00  0.00    +0.000 H 
ATOM      5  C5  UNL A   1      49.585  11.345  49.130  1.00  0.00    +0.000 C 
ATOM    112  H10 UNL A   1      49.507  10.279  49.092  1.00  0.00    +0.000 H 
BRANCH    5    4
ATOM      4  C4  UNL A   1      48.247  11.936  48.669  1.00  0.00    +0.000 C 
ATOM    110  H8  UNL A   1      48.385  12.336  47.687  1.00  0.00    +0.000 H 
ATOM    111  H9  UNL A   1      47.541  11.133  48.713  1.00  0.00    +0.000 H 
BRANCH    4    3
ATOM      3  C3  UNL A   1      47.676  13.047  49.556  1.00  0.00    +0.000 C 
ATOM    108  H6  UNL A   1      47.464  12.627  50.517  1.00  0.00    +0.000 H 
ATOM    109  H7  UNL A   1      48.416  13.818  49.577  1.00  0.00    +0.000 H 
BRANCH    3    2
ATOM      2  C2  UNL A   1      46.395  13.707  49.039  1.00  0.00    +0.000 C 
ATOM    107  H5  UNL A   1      45.649  12.943  48.971  1.00  0.00    +0.000 H 
ATOM    106  H4  UNL A   1      46.603  14.154  48.089  1.00  0.00    +0.000 H 
BRANCH    2    1
ATOM      1  C1  UNL A   1      45.854  14.783  49.969  1.00  0.00    +0.000 C 
ATOM    105  H3  UNL A   1      44.786  14.787  49.926  1.00  0.00    +0.000 H 
ATOM    103  H1  UNL A   1      46.227  15.738  49.663  1.00  0.00    +0.000 H 
ATOM    104  H2  UNL A   1      46.171  14.581  50.971  1.00  0.00    +0.000 H 
ENDBRANCH    2    1
ENDBRANCH    3    2
ENDBRANCH    4    3
ENDBRANCH    5    4
ENDBRANCH    6    5
ENDBRANCH    7    6
ENDBRANCH    8    7
ENDBRANCH   10    8
ENDBRANCH   11   10
ENDBRANCH   16   15
BRANCH   98   99
ATOM     99  N8  UNL A   1      49.876  19.991  49.697  1.00  0.00    +0.000 N 
ATOM    100  O5  UNL A   1      51.050  19.928  49.999  1.00  0.00    +0.000 O 
ATOM    101  O6  UNL A   1      49.542  20.714  48.577  1.00  0.00    +0.000 O 
ENDBRANCH   98   99
ENDBRANCH   20   19
BRANCH   20   21
ATOM    125  H23 UNL A   1      48.306  22.236  52.926  1.00  0.00    +0.000 H 
ATOM    123  H21 UNL A   1      48.291  22.215  54.673  1.00  0.00    +0.000 H 
ATOM    124  H22 UNL A   1      46.898  22.796  53.794  1.00  0.00    +0.000 H 
ATOM     21  C18 UNL A   1      47.697  22.085  53.792  1.00  0.00    +0.000 C 
ENDBRANCH   20   21
ENDBRANCH   22   20
ENDBRANCH   24   22
ENDBRANCH   25   24
ENDBRANCH   26   25
ENDBRANCH   27   26
ENDBRANCH   28   27
ENDBRANCH   29   28
ENDBRANCH   30   29
ENDBRANCH   31   30
ENDBRANCH   32   31
ENDBRANCH   34   32
ENDBRANCH   38   37
BRANCH   42   43
ATOM     43  C35 UNL A   1      41.713  16.725  51.334  1.00  0.00    +0.000 C 
ATOM     44  C36 UNL A   1      42.316  16.182  52.480  1.00  0.00    +0.000 C 
ATOM     45  F1  UNL A   1      43.607  15.818  52.454  1.00  0.00    +0.000 F 
ATOM     46  C37 UNL A   1      41.584  15.972  53.645  1.00  0.00    +0.000 C 
ATOM     47  F2  UNL A   1      42.168  15.404  54.709  1.00  0.00    +0.000 F 
ATOM     48  C38 UNL A   1      40.246  16.333  53.701  1.00  0.00    +0.000 C 
ATOM     49  F3  UNL A   1      39.543  16.134  54.824  1.00  0.00    +0.000 F 
ATOM     50  C39 UNL A   1      39.635  16.895  52.589  1.00  0.00    +0.000 C 
ATOM     51  F4  UNL A   1      38.346  17.257  52.646  1.00  0.00    +0.000 F 
ATOM     52  C40 UNL A   1      40.358  17.078  51.413  1.00  0.00    +0.000 C 
ATOM     53  F5  UNL A   1      39.733  17.608  50.350  1.00  0.00    +0.000 F 
ENDBRANCH   42   43
BRANCH   59   60
ATOM     65  C49 UNL A   1      42.790  10.692  44.054  1.00  0.00    +0.000 C 
ATOM     66  F8  UNL A   1      42.525   9.510  43.482  1.00  0.00    +0.000 F 
ATOM     67  C50 UNL A   1      43.785  10.791  45.015  1.00  0.00    +0.000 C 
ATOM     68  F9  UNL A   1      44.497   9.708  45.355  1.00  0.00    +0.000 F 
ATOM     69  C51 UNL A   1      44.046  12.014  45.626  1.00  0.00    +0.000 C 
ATOM     70  F10 UNL A   1      45.005  12.076  46.561  1.00  0.00    +0.000 F 
ATOM     60  C46 UNL A   1      43.329  13.166  45.270  1.00  0.00    +0.000 C 
ATOM     61  C47 UNL A   1      42.340  13.048  44.282  1.00  0.00    +0.000 C 
ATOM     62  F6  UNL A   1      41.617  14.118  43.919  1.00  0.00    +0.000 F 
ATOM     63  C48 UNL A   1      42.063  11.817  43.693  1.00  0.00    +0.000 C 
ATOM     64  F7  UNL A   1      41.082  11.717  42.786  1.00  0.00    +0.000 F 
ENDBRANCH   59   60
BRANCH   74   75
ATOM     75  C55 UNL A   1      47.273  18.541  43.244  1.00  0.00    +0.000 C 
ATOM     76  C56 UNL A   1      46.701  18.927  42.023  1.00  0.00    +0.000 C 
ATOM     77  F11 UNL A   1      45.369  19.041  41.916  1.00  0.00    +0.000 F 
ATOM     78  C57 UNL A   1      47.492  19.163  40.901  1.00  0.00    +0.000 C 
ATOM     79  F12 UNL A   1      46.916  19.493  39.737  1.00  0.00    +0.000 F 
ATOM     80  C58 UNL A   1      48.870  19.044  40.984  1.00  0.00    +0.000 C 
ATOM     81  F13 UNL A   1      49.632  19.278  39.907  1.00  0.00    +0.000 F 
ATOM     82  C59 UNL A   1      49.460  18.678  42.185  1.00  0.00    +0.000 C 
ATOM     83  F14 UNL A   1      50.793  18.577  42.273  1.00  0.00    +0.000 F 
ATOM     84  C60 UNL A   1      48.669  18.415  43.301  1.00  0.00    +0.000 C 
ATOM     85  F15 UNL A   1      49.264  18.055  44.447  1.00  0.00    +0.000 F 
ENDBRANCH   74   75
TORSDOF 28
ENDMDL
