MODEL 1
REMARK VINA RESULT:     -10.5      0.000      0.000
ROOT
ATOM     28  C20 UNL A   1      38.174  30.076  29.645  1.00  0.00    +0.000 C 
ATOM     29  C21 UNL A   1      38.384  30.584  31.048  1.00  0.00    +0.000 C 
ATOM     30  N4  UNL A   1      39.384  30.365  31.865  1.00  0.00    +0.000 N 
ATOM     31  C22 UNL A   1      39.094  31.076  33.022  1.00  0.00    +0.000 C 
ATOM     32  C23 UNL A   1      39.804  31.143  34.173  1.00  0.00    +0.000 C 
ATOM     44  C30 UNL A   1      41.041  30.447  34.410  1.00  0.00    +0.000 C 
ATOM     45  C31 UNL A   1      41.821  30.440  35.555  1.00  0.00    +0.000 C 
ATOM     46  C32 UNL A   1      42.945  29.643  35.314  1.00  0.00    +0.000 C 
ATOM     47  C33 UNL A   1      42.846  29.125  34.034  1.00  0.00    +0.000 C 
ATOM     48  N5  UNL A   1      41.676  29.628  33.489  1.00  0.00    +0.000 N 
ATOM     49  C34 UNL A   1      43.755  28.239  33.353  1.00  0.00    +0.000 C 
ATOM     61  C41 UNL A   1      43.567  27.740  32.108  1.00  0.00    +0.000 C 
ATOM     62  N6  UNL A   1      42.515  27.963  31.231  1.00  0.00    +0.000 N 
ATOM     63  C42 UNL A   1      42.801  27.287  30.147  1.00  0.00    +0.000 C 
ATOM     64  C43 UNL A   1      42.014  27.164  28.873  1.00  0.00    +0.000 C 
ATOM     76  C50 UNL A   1      40.878  27.871  28.727  1.00  0.00    +0.000 C 
ATOM     77  C51 UNL A   1      40.021  27.854  27.545  1.00  0.00    +0.000 C 
ATOM     78  C52 UNL A   1      38.988  28.688  27.741  1.00  0.00    +0.000 C 
ATOM     79  C53 UNL A   1      39.086  29.260  29.085  1.00  0.00    +0.000 C 
ATOM     80  N7  UNL A   1      40.257  28.746  29.584  1.00  0.00    +0.000 N 
ATOM     81  C54 UNL A   1      44.075  26.556  30.212  1.00  0.00    +0.000 C 
ATOM     82  C55 UNL A   1      44.488  26.844  31.439  1.00  0.00    +0.000 C 
ATOM     83  C56 UNL A   1      37.836  31.754  32.797  1.00  0.00    +0.000 C 
ATOM     84  C57 UNL A   1      37.334  31.450  31.608  1.00  0.00    +0.000 C 
ATOM    109  H23 UNL A   1      41.609  30.938  36.433  1.00  0.00    +0.000 H 
ATOM    110  H24 UNL A   1      43.716  29.471  35.978  1.00  0.00    +0.000 H 
ATOM    111  H25 UNL A   1      41.345  29.435  32.583  1.00  0.00    +0.000 H 
ATOM    112  H26 UNL A   1      40.182  27.290  26.696  1.00  0.00    +0.000 H 
ATOM    113  H27 UNL A   1      38.246  28.894  27.055  1.00  0.00    +0.000 H 
ATOM    114  H28 UNL A   1      40.616  28.982  30.469  1.00  0.00    +0.000 H 
ATOM    115  H29 UNL A   1      44.528  25.971  29.492  1.00  0.00    +0.000 H 
ATOM    116  H30 UNL A   1      45.355  26.478  31.862  1.00  0.00    +0.000 H 
ATOM    117  H31 UNL A   1      37.389  32.392  33.473  1.00  0.00    +0.000 H 
ATOM    118  H32 UNL A   1      36.439  31.744  31.185  1.00  0.00    +0.000 H 
ENDROOT
BRANCH   28   27
ATOM     27  C19 UNL A   1      36.932  30.407  28.899  1.00  0.00    +0.000 C 
ATOM    107  H21 UNL A   1      34.134  28.937  27.754  1.00  0.00    +0.000 H 
ATOM    108  H22 UNL A   1      36.192  28.425  28.926  1.00  0.00    +0.000 H 
ATOM     85  C58 UNL A   1      36.661  31.717  28.473  1.00  0.00    +0.000 C 
ATOM     86  C59 UNL A   1      35.424  32.029  27.902  1.00  0.00    +0.000 C 
ATOM    120  H34 UNL A   1      35.214  32.999  27.619  1.00  0.00    +0.000 H 
ATOM     24  C16 UNL A   1      34.471  31.022  27.716  1.00  0.00    +0.000 C 
ATOM     25  C17 UNL A   1      34.788  29.694  28.007  1.00  0.00    +0.000 C 
ATOM     26  C18 UNL A   1      35.991  29.397  28.642  1.00  0.00    +0.000 C 
ATOM    119  H33 UNL A   1      37.378  32.451  28.581  1.00  0.00    +0.000 H 
BRANCH   24   22
ATOM     22  C15 UNL A   1      33.116  31.394  27.253  1.00  0.00    +0.000 C 
ATOM     23  O3  UNL A   1      32.748  32.563  27.316  1.00  0.00    +0.000 O 
BRANCH   22   21
ATOM    106  H20 UNL A   1      31.571  30.124  27.437  1.00  0.00    +0.000 H 
ATOM     21  N3  UNL A   1      32.260  30.416  26.798  1.00  0.00    +0.000 N 
BRANCH   21   20
ATOM    105  H19 UNL A   1      33.058  30.135  24.937  1.00  0.00    +0.000 H 
ATOM     20  C14 UNL A   1      32.234  29.755  25.502  1.00  0.00    +0.000 C 
ATOM    104  H18 UNL A   1      31.294  29.961  25.035  1.00  0.00    +0.000 H 
BRANCH   20   19
ATOM     19  C13 UNL A   1      32.408  28.242  25.592  1.00  0.00    +0.000 C 
ATOM    102  H16 UNL A   1      32.328  27.962  26.622  1.00  0.00    +0.000 H 
ATOM    103  H17 UNL A   1      31.647  27.821  24.970  1.00  0.00    +0.000 H 
BRANCH   19   18
ATOM     18  C12 UNL A   1      33.735  27.701  25.060  1.00  0.00    +0.000 C 
ATOM    100  H14 UNL A   1      33.829  28.006  24.039  1.00  0.00    +0.000 H 
ATOM    101  H15 UNL A   1      34.494  28.100  25.702  1.00  0.00    +0.000 H 
BRANCH   18   17
ATOM     17  C11 UNL A   1      33.898  26.180  25.115  1.00  0.00    +0.000 C 
ATOM     98  H12 UNL A   1      33.663  25.788  24.149  1.00  0.00    +0.000 H 
ATOM     99  H13 UNL A   1      34.909  26.007  25.421  1.00  0.00    +0.000 H 
BRANCH   17   16
ATOM     97  H11 UNL A   1      32.018  25.520  25.783  1.00  0.00    +0.000 H 
ATOM     96  H10 UNL A   1      33.168  25.920  27.095  1.00  0.00    +0.000 H 
ATOM     16  C10 UNL A   1      33.023  25.451  26.145  1.00  0.00    +0.000 C 
BRANCH   16   15
ATOM     95  H9  UNL A   1      32.468  23.496  26.766  1.00  0.00    +0.000 H 
ATOM     94  H8  UNL A   1      34.189  23.837  26.908  1.00  0.00    +0.000 H 
ATOM     15  C9  UNL A   1      33.315  23.959  26.304  1.00  0.00    +0.000 C 
BRANCH   15   14
ATOM     93  H7  UNL A   1      34.366  23.533  24.532  1.00  0.00    +0.000 H 
ATOM     14  N2  UNL A   1      33.536  23.327  25.020  1.00  0.00    +0.000 N 
BRANCH   14    2
ATOM      1  O1  UNL A   1      32.144  21.497  25.042  1.00  0.00    +0.000 O 
ATOM      2  C1  UNL A   1      32.638  22.451  24.449  1.00  0.00    +0.000 C 
BRANCH    2    3
ATOM      3  C2  UNL A   1      32.325  22.743  22.986  1.00  0.00    +0.000 C 
ATOM     87  H1  UNL A   1      31.542  22.091  22.659  1.00  0.00    +0.000 H 
ATOM     88  H2  UNL A   1      33.213  22.582  22.410  1.00  0.00    +0.000 H 
BRANCH    3    4
ATOM      4  C3  UNL A   1      31.887  24.171  22.802  1.00  0.00    +0.000 C 
ATOM      5  C4  UNL A   1      32.603  25.000  21.852  1.00  0.00    +0.000 C 
ATOM      6  C5  UNL A   1      32.277  26.288  21.686  1.00  0.00    +0.000 C 
ATOM      7  C6  UNL A   1      31.159  26.892  22.462  1.00  0.00    +0.000 C 
ATOM      8  O2  UNL A   1      30.913  28.082  22.302  1.00  0.00    +0.000 O 
ATOM      9  N1  UNL A   1      30.485  26.027  23.310  1.00  0.00    +0.000 N 
ATOM     13  C8  UNL A   1      30.853  24.703  23.476  1.00  0.00    +0.000 C 
ATOM     89  H3  UNL A   1      33.372  24.593  21.298  1.00  0.00    +0.000 H 
ATOM     90  H4  UNL A   1      32.805  26.866  21.014  1.00  0.00    +0.000 H 
ATOM     92  H6  UNL A   1      30.323  24.110  24.134  1.00  0.00    +0.000 H 
BRANCH    9   10
ATOM     10  C7  UNL A   1      29.396  26.582  24.072  1.00  0.00    +0.000 C 
ATOM     11  F1  UNL A   1      28.212  26.048  23.682  1.00  0.00    +0.000 F 
ATOM     12  F2  UNL A   1      29.550  26.338  25.396  1.00  0.00    +0.000 F 
ATOM     91  H5  UNL A   1      29.398  27.638  23.896  1.00  0.00    +0.000 H 
ENDBRANCH    9   10
ENDBRANCH    3    4
ENDBRANCH    2    3
ENDBRANCH   14    2
ENDBRANCH   15   14
ENDBRANCH   16   15
ENDBRANCH   17   16
ENDBRANCH   18   17
ENDBRANCH   19   18
ENDBRANCH   20   19
ENDBRANCH   21   20
ENDBRANCH   22   21
ENDBRANCH   24   22
ENDBRANCH   28   27
BRANCH   32   33
ATOM     33  C24 UNL A   1      39.266  32.003  35.278  1.00  0.00    +0.000 C 
ATOM     34  C25 UNL A   1      38.455  31.470  36.291  1.00  0.00    +0.000 C 
ATOM     35  F3  UNL A   1      38.080  30.183  36.247  1.00  0.00    +0.000 F 
ATOM     36  C26 UNL A   1      38.011  32.265  37.344  1.00  0.00    +0.000 C 
ATOM     37  F4  UNL A   1      37.217  31.742  38.288  1.00  0.00    +0.000 F 
ATOM     38  C27 UNL A   1      38.387  33.599  37.417  1.00  0.00    +0.000 C 
ATOM     39  F5  UNL A   1      37.970  34.359  38.439  1.00  0.00    +0.000 F 
ATOM     40  C28 UNL A   1      39.193  34.144  36.429  1.00  0.00    +0.000 C 
ATOM     41  F6  UNL A   1      39.566  35.429  36.504  1.00  0.00    +0.000 F 
ATOM     42  C29 UNL A   1      39.621  33.357  35.363  1.00  0.00    +0.000 C 
ATOM     43  F7  UNL A   1      40.399  33.913  34.422  1.00  0.00    +0.000 F 
ENDBRANCH   32   33
BRANCH   49   50
ATOM     50  C35 UNL A   1      45.000  27.830  34.079  1.00  0.00    +0.000 C 
ATOM     51  C36 UNL A   1      45.035  26.668  34.863  1.00  0.00    +0.000 C 
ATOM     52  F8  UNL A   1      43.923  25.937  35.036  1.00  0.00    +0.000 F 
ATOM     53  C37 UNL A   1      46.209  26.266  35.493  1.00  0.00    +0.000 C 
ATOM     54  F9  UNL A   1      46.214  25.168  36.262  1.00  0.00    +0.000 F 
ATOM     55  C38 UNL A   1      47.373  27.004  35.331  1.00  0.00    +0.000 C 
ATOM     56  F10 UNL A   1      48.506  26.610  35.930  1.00  0.00    +0.000 F 
ATOM     57  C39 UNL A   1      47.362  28.152  34.554  1.00  0.00    +0.000 C 
ATOM     58  F11 UNL A   1      48.489  28.860  34.389  1.00  0.00    +0.000 F 
ATOM     59  C40 UNL A   1      46.184  28.568  33.940  1.00  0.00    +0.000 C 
ATOM     60  F12 UNL A   1      46.202  29.684  33.195  1.00  0.00    +0.000 F 
ENDBRANCH   49   50
BRANCH   64   65
ATOM     65  C44 UNL A   1      42.467  26.271  27.778  1.00  0.00    +0.000 C 
ATOM     66  C45 UNL A   1      41.952  24.976  27.649  1.00  0.00    +0.000 C 
ATOM     67  F13 UNL A   1      41.077  24.509  28.552  1.00  0.00    +0.000 F 
ATOM     68  C46 UNL A   1      42.353  24.145  26.605  1.00  0.00    +0.000 C 
ATOM     69  F14 UNL A   1      41.864  22.900  26.516  1.00  0.00    +0.000 F 
ATOM     70  C47 UNL A   1      43.258  24.603  25.659  1.00  0.00    +0.000 C 
ATOM     71  F15 UNL A   1      43.630  23.809  24.646  1.00  0.00    +0.000 F 
ATOM     72  C48 UNL A   1      43.778  25.884  25.765  1.00  0.00    +0.000 C 
ATOM     73  F16 UNL A   1      44.643  26.335  24.846  1.00  0.00    +0.000 F 
ATOM     74  C49 UNL A   1      43.398  26.706  26.822  1.00  0.00    +0.000 C 
ATOM     75  F17 UNL A   1      43.917  27.940  26.904  1.00  0.00    +0.000 F 
ENDBRANCH   64   65
TORSDOF 17
ENDMDL
MODEL 2
REMARK VINA RESULT:     -10.5      1.485      7.675
ROOT
ATOM     28  C20 UNL A   1      37.897  30.160  30.038  1.00  0.00    +0.000 C 
ATOM     29  C21 UNL A   1      38.969  29.281  29.449  1.00  0.00    +0.000 C 
ATOM     30  N4  UNL A   1      40.064  28.827  30.007  1.00  0.00    +0.000 N 
ATOM     31  C22 UNL A   1      40.692  28.055  29.039  1.00  0.00    +0.000 C 
ATOM     32  C23 UNL A   1      41.874  27.398  29.118  1.00  0.00    +0.000 C 
ATOM     44  C30 UNL A   1      42.730  27.395  30.276  1.00  0.00    +0.000 C 
ATOM     45  C31 UNL A   1      43.958  26.774  30.439  1.00  0.00    +0.000 C 
ATOM     46  C32 UNL A   1      44.407  27.028  31.739  1.00  0.00    +0.000 C 
ATOM     47  C33 UNL A   1      43.478  27.836  32.372  1.00  0.00    +0.000 C 
ATOM     48  N5  UNL A   1      42.453  28.051  31.465  1.00  0.00    +0.000 N 
ATOM     49  C34 UNL A   1      43.517  28.370  33.709  1.00  0.00    +0.000 C 
ATOM     61  C41 UNL A   1      42.585  29.192  34.245  1.00  0.00    +0.000 C 
ATOM     62  N6  UNL A   1      41.421  29.680  33.668  1.00  0.00    +0.000 N 
ATOM     63  C42 UNL A   1      40.841  30.407  34.590  1.00  0.00    +0.000 C 
ATOM     64  C43 UNL A   1      39.552  31.176  34.517  1.00  0.00    +0.000 C 
ATOM     76  C50 UNL A   1      38.800  31.101  33.402  1.00  0.00    +0.000 C 
ATOM     77  C51 UNL A   1      37.528  31.787  33.197  1.00  0.00    +0.000 C 
ATOM     78  C52 UNL A   1      37.052  31.473  31.982  1.00  0.00    +0.000 C 
ATOM     79  C53 UNL A   1      38.014  30.603  31.304  1.00  0.00    +0.000 C 
ATOM     80  N7  UNL A   1      39.003  30.407  32.235  1.00  0.00    +0.000 N 
ATOM     81  C54 UNL A   1      41.573  30.462  35.864  1.00  0.00    +0.000 C 
ATOM     82  C55 UNL A   1      42.642  29.726  35.590  1.00  0.00    +0.000 C 
ATOM     83  C56 UNL A   1      39.848  28.078  27.866  1.00  0.00    +0.000 C 
ATOM     84  C57 UNL A   1      38.790  28.857  28.052  1.00  0.00    +0.000 C 
ATOM    109  H23 UNL A   1      44.454  26.219  29.724  1.00  0.00    +0.000 H 
ATOM    110  H24 UNL A   1      45.282  26.672  32.155  1.00  0.00    +0.000 H 
ATOM    111  H25 UNL A   1      41.648  28.590  31.638  1.00  0.00    +0.000 H 
ATOM    112  H26 UNL A   1      37.068  32.413  33.876  1.00  0.00    +0.000 H 
ATOM    113  H27 UNL A   1      36.153  31.792  31.590  1.00  0.00    +0.000 H 
ATOM    114  H28 UNL A   1      39.782  29.826  32.081  1.00  0.00    +0.000 H 
ATOM    115  H29 UNL A   1      41.321  30.946  36.740  1.00  0.00    +0.000 H 
ATOM    116  H30 UNL A   1      43.415  29.556  36.251  1.00  0.00    +0.000 H 
ATOM    117  H31 UNL A   1      40.043  27.556  26.997  1.00  0.00    +0.000 H 
ATOM    118  H32 UNL A   1      38.038  29.101  27.388  1.00  0.00    +0.000 H 
ENDROOT
BRANCH   28   27
ATOM     27  C19 UNL A   1      36.746  30.606  29.211  1.00  0.00    +0.000 C 
ATOM    107  H21 UNL A   1      33.871  29.425  27.930  1.00  0.00    +0.000 H 
ATOM    108  H22 UNL A   1      35.786  28.721  29.236  1.00  0.00    +0.000 H 
ATOM     85  C58 UNL A   1      36.650  31.925  28.740  1.00  0.00    +0.000 C 
ATOM     86  C59 UNL A   1      35.491  32.356  28.088  1.00  0.00    +0.000 C 
ATOM    120  H34 UNL A   1      35.409  33.336  27.772  1.00  0.00    +0.000 H 
ATOM     24  C16 UNL A   1      34.442  31.457  27.868  1.00  0.00    +0.000 C 
ATOM     25  C17 UNL A   1      34.590  30.111  28.206  1.00  0.00    +0.000 C 
ATOM     26  C18 UNL A   1      35.713  29.700  28.919  1.00  0.00    +0.000 C 
ATOM    119  H33 UNL A   1      37.437  32.578  28.876  1.00  0.00    +0.000 H 
BRANCH   24   22
ATOM     22  C15 UNL A   1      33.167  31.964  27.315  1.00  0.00    +0.000 C 
ATOM     23  O3  UNL A   1      32.899  33.160  27.394  1.00  0.00    +0.000 O 
BRANCH   22   21
ATOM    106  H20 UNL A   1      31.329  31.211  27.021  1.00  0.00    +0.000 H 
ATOM     21  N3  UNL A   1      32.269  31.082  26.758  1.00  0.00    +0.000 N 
BRANCH   21   20
ATOM    105  H19 UNL A   1      33.527  29.668  25.984  1.00  0.00    +0.000 H 
ATOM     20  C14 UNL A   1      32.517  29.987  25.834  1.00  0.00    +0.000 C 
ATOM    104  H18 UNL A   1      32.348  30.338  24.837  1.00  0.00    +0.000 H 
BRANCH   20   19
ATOM     19  C13 UNL A   1      31.622  28.776  26.078  1.00  0.00    +0.000 C 
ATOM    102  H16 UNL A   1      30.810  29.087  26.701  1.00  0.00    +0.000 H 
ATOM    103  H17 UNL A   1      31.318  28.435  25.111  1.00  0.00    +0.000 H 
BRANCH   19   18
ATOM     18  C12 UNL A   1      32.301  27.583  26.751  1.00  0.00    +0.000 C 
ATOM    100  H14 UNL A   1      32.553  27.868  27.750  1.00  0.00    +0.000 H 
ATOM    101  H15 UNL A   1      31.598  26.776  26.695  1.00  0.00    +0.000 H 
BRANCH   18   17
ATOM     17  C11 UNL A   1      33.575  27.076  26.069  1.00  0.00    +0.000 C 
ATOM     98  H12 UNL A   1      33.869  27.801  25.340  1.00  0.00    +0.000 H 
ATOM     99  H13 UNL A   1      34.288  26.934  26.854  1.00  0.00    +0.000 H 
BRANCH   17   16
ATOM     97  H11 UNL A   1      32.415  25.485  25.332  1.00  0.00    +0.000 H 
ATOM     96  H10 UNL A   1      34.040  25.007  25.912  1.00  0.00    +0.000 H 
ATOM     16  C10 UNL A   1      33.459  25.718  25.362  1.00  0.00    +0.000 C 
BRANCH   16   15
ATOM     95  H9  UNL A   1      34.748  25.003  23.832  1.00  0.00    +0.000 H 
ATOM     94  H8  UNL A   1      34.259  26.683  23.637  1.00  0.00    +0.000 H 
ATOM     15  C9  UNL A   1      33.940  25.699  23.911  1.00  0.00    +0.000 C 
BRANCH   15   14
ATOM     93  H7  UNL A   1      32.545  24.357  23.087  1.00  0.00    +0.000 H 
ATOM     14  N2  UNL A   1      32.885  25.278  23.013  1.00  0.00    +0.000 N 
BRANCH   14    2
ATOM      1  O1  UNL A   1      32.034  25.745  20.928  1.00  0.00    +0.000 O 
ATOM      2  C1  UNL A   1      32.333  26.108  22.062  1.00  0.00    +0.000 C 
BRANCH    2    3
ATOM      3  C2  UNL A   1      32.149  27.550  22.523  1.00  0.00    +0.000 C 
ATOM     87  H1  UNL A   1      32.535  28.208  21.773  1.00  0.00    +0.000 H 
ATOM     88  H2  UNL A   1      32.674  27.682  23.445  1.00  0.00    +0.000 H 
BRANCH    3    4
ATOM      4  C3  UNL A   1      30.694  27.863  22.751  1.00  0.00    +0.000 C 
ATOM      5  C4  UNL A   1      29.881  26.899  23.466  1.00  0.00    +0.000 C 
ATOM      6  C5  UNL A   1      28.573  27.113  23.655  1.00  0.00    +0.000 C 
ATOM      7  C6  UNL A   1      27.929  28.356  23.149  1.00  0.00    +0.000 C 
ATOM      8  O2  UNL A   1      26.723  28.499  23.316  1.00  0.00    +0.000 O 
ATOM      9  N1  UNL A   1      28.778  29.257  22.523  1.00  0.00    +0.000 N 
ATOM     13  C8  UNL A   1      30.124  29.003  22.325  1.00  0.00    +0.000 C 
ATOM     89  H3  UNL A   1      30.315  26.038  23.834  1.00  0.00    +0.000 H 
ATOM     90  H4  UNL A   1      28.007  26.411  24.156  1.00  0.00    +0.000 H 
ATOM     92  H6  UNL A   1      30.704  29.705  21.839  1.00  0.00    +0.000 H 
BRANCH    9   10
ATOM     10  C7  UNL A   1      28.184  30.471  22.026  1.00  0.00    +0.000 C 
ATOM     11  F1  UNL A   1      28.076  31.395  23.011  1.00  0.00    +0.000 F 
ATOM     12  F2  UNL A   1      28.929  31.007  21.028  1.00  0.00    +0.000 F 
ATOM     91  H5  UNL A   1      27.214  30.214  21.654  1.00  0.00    +0.000 H 
ENDBRANCH    9   10
ENDBRANCH    3    4
ENDBRANCH    2    3
ENDBRANCH   14    2
ENDBRANCH   15   14
ENDBRANCH   16   15
ENDBRANCH   17   16
ENDBRANCH   18   17
ENDBRANCH   19   18
ENDBRANCH   20   19
ENDBRANCH   21   20
ENDBRANCH   22   21
ENDBRANCH   24   22
ENDBRANCH   28   27
BRANCH   32   33
ATOM     33  C24 UNL A   1      42.323  26.618  27.918  1.00  0.00    +0.000 C 
ATOM     34  C25 UNL A   1      41.887  25.304  27.695  1.00  0.00    +0.000 C 
ATOM     35  F3  UNL A   1      41.113  24.687  28.599  1.00  0.00    +0.000 F 
ATOM     36  C26 UNL A   1      42.263  24.612  26.546  1.00  0.00    +0.000 C 
ATOM     37  F4  UNL A   1      41.856  23.348  26.364  1.00  0.00    +0.000 F 
ATOM     38  C27 UNL A   1      43.061  25.227  25.592  1.00  0.00    +0.000 C 
ATOM     39  F5  UNL A   1      43.410  24.563  24.481  1.00  0.00    +0.000 F 
ATOM     40  C28 UNL A   1      43.498  26.527  25.790  1.00  0.00    +0.000 C 
ATOM     41  F6  UNL A   1      44.259  27.126  24.864  1.00  0.00    +0.000 F 
ATOM     42  C29 UNL A   1      43.142  27.215  26.948  1.00  0.00    +0.000 C 
ATOM     43  F7  UNL A   1      43.580  28.472  27.113  1.00  0.00    +0.000 F 
ENDBRANCH   32   33
BRANCH   49   50
ATOM     50  C35 UNL A   1      44.684  27.995  34.572  1.00  0.00    +0.000 C 
ATOM     51  C36 UNL A   1      45.830  28.801  34.634  1.00  0.00    +0.000 C 
ATOM     52  F8  UNL A   1      45.930  29.892  33.860  1.00  0.00    +0.000 F 
ATOM     53  C37 UNL A   1      46.888  28.473  35.477  1.00  0.00    +0.000 C 
ATOM     54  F9  UNL A   1      47.986  29.241  35.501  1.00  0.00    +0.000 F 
ATOM     55  C38 UNL A   1      46.810  27.350  36.288  1.00  0.00    +0.000 C 
ATOM     56  F10 UNL A   1      47.825  27.042  37.106  1.00  0.00    +0.000 F 
ATOM     57  C39 UNL A   1      45.683  26.544  36.247  1.00  0.00    +0.000 C 
ATOM     58  F11 UNL A   1      45.603  25.465  37.037  1.00  0.00    +0.000 F 
ATOM     59  C40 UNL A   1      44.631  26.857  35.390  1.00  0.00    +0.000 C 
ATOM     60  F12 UNL A   1      43.553  26.058  35.369  1.00  0.00    +0.000 F 
ENDBRANCH   49   50
BRANCH   64   65
ATOM     65  C44 UNL A   1      39.099  32.019  35.651  1.00  0.00    +0.000 C 
ATOM     66  C45 UNL A   1      38.296  31.483  36.666  1.00  0.00    +0.000 C 
ATOM     67  F13 UNL A   1      37.885  30.209  36.594  1.00  0.00    +0.000 F 
ATOM     68  C46 UNL A   1      37.893  32.263  37.747  1.00  0.00    +0.000 C 
ATOM     69  F14 UNL A   1      37.105  31.736  38.695  1.00  0.00    +0.000 F 
ATOM     70  C47 UNL A   1      38.303  33.585  37.845  1.00  0.00    +0.000 C 
ATOM     71  F15 UNL A   1      37.928  34.329  38.893  1.00  0.00    +0.000 F 
ATOM     72  C48 UNL A   1      39.102  34.134  36.853  1.00  0.00    +0.000 C 
ATOM     73  F16 UNL A   1      39.511  35.406  36.949  1.00  0.00    +0.000 F 
ATOM     74  C49 UNL A   1      39.485  33.363  35.758  1.00  0.00    +0.000 C 
ATOM     75  F17 UNL A   1      40.254  33.918  34.811  1.00  0.00    +0.000 F 
ENDBRANCH   64   65
TORSDOF 17
ENDMDL
MODEL 3
REMARK VINA RESULT:     -10.4     34.360     42.602
ROOT
ATOM     28  C20 UNL A   1       2.627  11.020  37.862  1.00  0.00    +0.000 C 
ATOM     29  C21 UNL A   1       3.619   9.898  38.015  1.00  0.00    +0.000 C 
ATOM     30  N4  UNL A   1       3.512   8.644  37.649  1.00  0.00    +0.000 N 
ATOM     31  C22 UNL A   1       4.709   8.039  38.007  1.00  0.00    +0.000 C 
ATOM     32  C23 UNL A   1       5.074   6.743  37.869  1.00  0.00    +0.000 C 
ATOM     44  C30 UNL A   1       4.238   5.714  37.307  1.00  0.00    +0.000 C 
ATOM     45  C31 UNL A   1       4.518   4.367  37.147  1.00  0.00    +0.000 C 
ATOM     46  C32 UNL A   1       3.417   3.761  36.533  1.00  0.00    +0.000 C 
ATOM     47  C33 UNL A   1       2.438   4.723  36.345  1.00  0.00    +0.000 C 
ATOM     48  N5  UNL A   1       2.956   5.916  36.821  1.00  0.00    +0.000 N 
ATOM     49  C34 UNL A   1       1.128   4.568  35.768  1.00  0.00    +0.000 C 
ATOM     61  C41 UNL A   1       0.207   5.553  35.655  1.00  0.00    +0.000 C 
ATOM     62  N6  UNL A   1       0.306   6.884  36.037  1.00  0.00    +0.000 N 
ATOM     63  C42 UNL A   1      -0.829   7.441  35.696  1.00  0.00    +0.000 C 
ATOM     64  C43 UNL A   1      -1.275   8.865  35.871  1.00  0.00    +0.000 C 
ATOM     76  C50 UNL A   1      -0.417   9.767  36.384  1.00  0.00    +0.000 C 
ATOM     77  C51 UNL A   1      -0.712  11.181  36.602  1.00  0.00    +0.000 C 
ATOM     78  C52 UNL A   1       0.375  11.782  37.109  1.00  0.00    +0.000 C 
ATOM     79  C53 UNL A   1       1.427  10.783  37.298  1.00  0.00    +0.000 C 
ATOM     80  N7  UNL A   1       0.881   9.623  36.808  1.00  0.00    +0.000 N 
ATOM     81  C54 UNL A   1      -1.781   6.523  35.053  1.00  0.00    +0.000 C 
ATOM     82  C55 UNL A   1      -1.110   5.380  35.079  1.00  0.00    +0.000 C 
ATOM     83  C56 UNL A   1       5.541   9.064  38.598  1.00  0.00    +0.000 C 
ATOM     84  C57 UNL A   1       4.898  10.222  38.666  1.00  0.00    +0.000 C 
ATOM    109  H23 UNL A   1       5.389   3.893  37.431  1.00  0.00    +0.000 H 
ATOM    110  H24 UNL A   1       3.347   2.767  36.266  1.00  0.00    +0.000 H 
ATOM    111  H25 UNL A   1       2.484   6.780  36.815  1.00  0.00    +0.000 H 
ATOM    112  H26 UNL A   1      -1.612  11.643  36.400  1.00  0.00    +0.000 H 
ATOM    113  H27 UNL A   1       0.457  12.787  37.329  1.00  0.00    +0.000 H 
ATOM    114  H28 UNL A   1       1.371   8.771  36.764  1.00  0.00    +0.000 H 
ATOM    115  H29 UNL A   1      -2.724   6.718  34.681  1.00  0.00    +0.000 H 
ATOM    116  H30 UNL A   1      -1.479   4.481  34.730  1.00  0.00    +0.000 H 
ATOM    117  H31 UNL A   1       6.508   8.914  38.923  1.00  0.00    +0.000 H 
ATOM    118  H32 UNL A   1       5.214  11.118  39.069  1.00  0.00    +0.000 H 
ENDROOT
BRANCH   28   27
ATOM     27  C19 UNL A   1       2.928  12.374  38.396  1.00  0.00    +0.000 C 
ATOM    107  H21 UNL A   1       4.047  15.371  37.361  1.00  0.00    +0.000 H 
ATOM    108  H22 UNL A   1       3.589  13.139  36.537  1.00  0.00    +0.000 H 
ATOM     85  C58 UNL A   1       2.717  12.693  39.747  1.00  0.00    +0.000 C 
ATOM     86  C59 UNL A   1       2.872  14.009  40.191  1.00  0.00    +0.000 C 
ATOM    120  H34 UNL A   1       2.685  14.247  41.178  1.00  0.00    +0.000 H 
ATOM     24  C16 UNL A   1       3.279  15.002  39.294  1.00  0.00    +0.000 C 
ATOM     25  C17 UNL A   1       3.627  14.664  37.985  1.00  0.00    +0.000 C 
ATOM     26  C18 UNL A   1       3.404  13.369  37.526  1.00  0.00    +0.000 C 
ATOM    119  H33 UNL A   1       2.448  11.952  40.413  1.00  0.00    +0.000 H 
BRANCH   24   22
ATOM     22  C15 UNL A   1       3.292  16.412  39.741  1.00  0.00    +0.000 C 
ATOM     23  O3  UNL A   1       2.268  17.086  39.666  1.00  0.00    +0.000 O 
BRANCH   22   21
ATOM    106  H20 UNL A   1       4.749  17.793  39.734  1.00  0.00    +0.000 H 
ATOM     21  N3  UNL A   1       4.464  16.971  40.195  1.00  0.00    +0.000 N 
BRANCH   21   20
ATOM    105  H19 UNL A   1       4.770  15.853  41.880  1.00  0.00    +0.000 H 
ATOM     20  C14 UNL A   1       5.341  16.516  41.264  1.00  0.00    +0.000 C 
ATOM    104  H18 UNL A   1       5.689  17.371  41.805  1.00  0.00    +0.000 H 
BRANCH   20   19
ATOM     19  C13 UNL A   1       6.551  15.735  40.761  1.00  0.00    +0.000 C 
ATOM    102  H16 UNL A   1       6.595  15.845  39.698  1.00  0.00    +0.000 H 
ATOM    103  H17 UNL A   1       7.397  16.143  41.272  1.00  0.00    +0.000 H 
BRANCH   19   18
ATOM     18  C12 UNL A   1       6.547  14.240  41.081  1.00  0.00    +0.000 C 
ATOM    100  H14 UNL A   1       7.375  14.039  41.727  1.00  0.00    +0.000 H 
ATOM    101  H15 UNL A   1       5.593  14.037  41.524  1.00  0.00    +0.000 H 
BRANCH   18   17
ATOM     17  C11 UNL A   1       6.654  13.306  39.873  1.00  0.00    +0.000 C 
ATOM     98  H12 UNL A   1       7.302  12.497  40.138  1.00  0.00    +0.000 H 
ATOM     99  H13 UNL A   1       5.652  13.005  39.647  1.00  0.00    +0.000 H 
BRANCH   17   16
ATOM     97  H11 UNL A   1       7.748  14.806  38.887  1.00  0.00    +0.000 H 
ATOM     96  H10 UNL A   1       6.367  14.163  37.948  1.00  0.00    +0.000 H 
ATOM     16  C10 UNL A   1       7.198  13.940  38.584  1.00  0.00    +0.000 C 
BRANCH   16   15
ATOM     95  H9  UNL A   1       8.787  12.533  38.491  1.00  0.00    +0.000 H 
ATOM     94  H8  UNL A   1       8.774  13.696  37.169  1.00  0.00    +0.000 H 
ATOM     15  C9  UNL A   1       8.175  13.069  37.795  1.00  0.00    +0.000 C 
BRANCH   15   14
ATOM     93  H7  UNL A   1       7.179  11.263  37.379  1.00  0.00    +0.000 H 
ATOM     14  N2  UNL A   1       7.474  12.108  36.969  1.00  0.00    +0.000 N 
BRANCH   14    2
ATOM      1  O1  UNL A   1       7.739  11.710  34.720  1.00  0.00    +0.000 O 
ATOM      2  C1  UNL A   1       7.200  12.323  35.636  1.00  0.00    +0.000 C 
BRANCH    2    3
ATOM      3  C2  UNL A   1       6.181  13.428  35.379  1.00  0.00    +0.000 C 
ATOM     87  H1  UNL A   1       6.067  14.012  36.268  1.00  0.00    +0.000 H 
ATOM     88  H2  UNL A   1       5.251  12.975  35.104  1.00  0.00    +0.000 H 
BRANCH    3    4
ATOM      4  C3  UNL A   1       6.628  14.324  34.255  1.00  0.00    +0.000 C 
ATOM      5  C4  UNL A   1       6.014  14.161  32.952  1.00  0.00    +0.000 C 
ATOM      6  C5  UNL A   1       6.410  14.905  31.911  1.00  0.00    +0.000 C 
ATOM      7  C6  UNL A   1       7.477  15.929  32.076  1.00  0.00    +0.000 C 
ATOM      8  O2  UNL A   1       7.831  16.568  31.091  1.00  0.00    +0.000 O 
ATOM      9  N1  UNL A   1       7.980  16.068  33.361  1.00  0.00    +0.000 N 
ATOM     13  C8  UNL A   1       7.566  15.273  34.416  1.00  0.00    +0.000 C 
ATOM     89  H3  UNL A   1       5.264  13.464  32.824  1.00  0.00    +0.000 H 
ATOM     90  H4  UNL A   1       5.970  14.768  30.988  1.00  0.00    +0.000 H 
ATOM     92  H6  UNL A   1       7.988  15.412  35.348  1.00  0.00    +0.000 H 
BRANCH    9   10
ATOM     10  C7  UNL A   1       9.013  17.053  33.552  1.00  0.00    +0.000 C 
ATOM     11  F1  UNL A   1       8.506  18.307  33.461  1.00  0.00    +0.000 F 
ATOM     12  F2  UNL A   1       9.595  16.923  34.769  1.00  0.00    +0.000 F 
ATOM     91  H5  UNL A   1       9.741  16.895  32.784  1.00  0.00    +0.000 H 
ENDBRANCH    9   10
ENDBRANCH    3    4
ENDBRANCH    2    3
ENDBRANCH   14    2
ENDBRANCH   15   14
ENDBRANCH   16   15
ENDBRANCH   17   16
ENDBRANCH   18   17
ENDBRANCH   19   18
ENDBRANCH   20   19
ENDBRANCH   21   20
ENDBRANCH   22   21
ENDBRANCH   24   22
ENDBRANCH   28   27
BRANCH   32   33
ATOM     33  C24 UNL A   1       6.445   6.349  38.333  1.00  0.00    +0.000 C 
ATOM     34  C25 UNL A   1       7.593   6.713  37.614  1.00  0.00    +0.000 C 
ATOM     35  F3  UNL A   1       7.480   7.362  36.446  1.00  0.00    +0.000 F 
ATOM     36  C26 UNL A   1       8.864   6.394  38.087  1.00  0.00    +0.000 C 
ATOM     37  F4  UNL A   1       9.947   6.729  37.372  1.00  0.00    +0.000 F 
ATOM     38  C27 UNL A   1       9.011   5.726  39.294  1.00  0.00    +0.000 C 
ATOM     39  F5  UNL A   1      10.235   5.432  39.753  1.00  0.00    +0.000 F 
ATOM     40  C28 UNL A   1       7.890   5.362  40.023  1.00  0.00    +0.000 C 
ATOM     41  F6  UNL A   1       8.030   4.726  41.194  1.00  0.00    +0.000 F 
ATOM     42  C29 UNL A   1       6.617   5.660  39.543  1.00  0.00    +0.000 C 
ATOM     43  F7  UNL A   1       5.550   5.295  40.270  1.00  0.00    +0.000 F 
ENDBRANCH   32   33
BRANCH   49   50
ATOM     50  C35 UNL A   1       0.750   3.209  35.260  1.00  0.00    +0.000 C 
ATOM     51  C36 UNL A   1      -0.026   2.335  36.035  1.00  0.00    +0.000 C 
ATOM     52  F8  UNL A   1      -0.383   2.674  37.283  1.00  0.00    +0.000 F 
ATOM     53  C37 UNL A   1      -0.416   1.095  35.537  1.00  0.00    +0.000 C 
ATOM     54  F9  UNL A   1      -1.133   0.262  36.304  1.00  0.00    +0.000 F 
ATOM     55  C38 UNL A   1      -0.060   0.719  34.249  1.00  0.00    +0.000 C 
ATOM     56  F10 UNL A   1      -0.446  -0.471  33.768  1.00  0.00    +0.000 F 
ATOM     57  C39 UNL A   1       0.700   1.572  33.464  1.00  0.00    +0.000 C 
ATOM     58  F11 UNL A   1       1.036   1.213  32.217  1.00  0.00    +0.000 F 
ATOM     59  C40 UNL A   1       1.110   2.804  33.967  1.00  0.00    +0.000 C 
ATOM     60  F12 UNL A   1       1.846   3.609  33.186  1.00  0.00    +0.000 F 
ENDBRANCH   49   50
BRANCH   64   65
ATOM     65  C44 UNL A   1      -2.646   9.289  35.494  1.00  0.00    +0.000 C 
ATOM     66  C45 UNL A   1      -2.911   9.805  34.219  1.00  0.00    +0.000 C 
ATOM     67  F13 UNL A   1      -1.911   9.969  33.341  1.00  0.00    +0.000 F 
ATOM     68  C46 UNL A   1      -4.202  10.177  33.851  1.00  0.00    +0.000 C 
ATOM     69  F14 UNL A   1      -4.427  10.691  32.633  1.00  0.00    +0.000 F 
ATOM     70  C47 UNL A   1      -5.253  10.019  34.741  1.00  0.00    +0.000 C 
ATOM     71  F15 UNL A   1      -6.497  10.362  34.380  1.00  0.00    +0.000 F 
ATOM     72  C48 UNL A   1      -5.014   9.506  36.008  1.00  0.00    +0.000 C 
ATOM     73  F16 UNL A   1      -6.028   9.340  36.867  1.00  0.00    +0.000 F 
ATOM     74  C49 UNL A   1      -3.720   9.158  36.386  1.00  0.00    +0.000 C 
ATOM     75  F17 UNL A   1      -3.514   8.667  37.617  1.00  0.00    +0.000 F 
ENDBRANCH   64   65
TORSDOF 17
ENDMDL
MODEL 4
REMARK VINA RESULT:     -10.4      4.608      9.648
ROOT
ATOM     28  C20 UNL A   1      41.565  26.148  27.912  1.00  0.00    +0.000 C 
ATOM     29  C21 UNL A   1      42.951  26.484  27.429  1.00  0.00    +0.000 C 
ATOM     30  N4  UNL A   1      43.633  27.593  27.581  1.00  0.00    +0.000 N 
ATOM     31  C22 UNL A   1      44.856  27.376  26.961  1.00  0.00    +0.000 C 
ATOM     32  C23 UNL A   1      45.894  28.233  26.817  1.00  0.00    +0.000 C 
ATOM     44  C30 UNL A   1      45.906  29.590  27.300  1.00  0.00    +0.000 C 
ATOM     45  C31 UNL A   1      46.908  30.539  27.181  1.00  0.00    +0.000 C 
ATOM     46  C32 UNL A   1      46.483  31.706  27.825  1.00  0.00    +0.000 C 
ATOM     47  C33 UNL A   1      45.204  31.495  28.312  1.00  0.00    +0.000 C 
ATOM     48  N5  UNL A   1      44.863  30.193  27.986  1.00  0.00    +0.000 N 
ATOM     49  C34 UNL A   1      44.355  32.412  29.028  1.00  0.00    +0.000 C 
ATOM     61  C41 UNL A   1      43.093  32.144  29.438  1.00  0.00    +0.000 C 
ATOM     62  N6  UNL A   1      42.359  30.976  29.285  1.00  0.00    +0.000 N 
ATOM     63  C42 UNL A   1      41.209  31.195  29.872  1.00  0.00    +0.000 C 
ATOM     64  C43 UNL A   1      40.028  30.278  30.013  1.00  0.00    +0.000 C 
ATOM     76  C50 UNL A   1      40.114  29.015  29.554  1.00  0.00    +0.000 C 
ATOM     77  C51 UNL A   1      39.051  28.017  29.629  1.00  0.00    +0.000 C 
ATOM     78  C52 UNL A   1      39.489  26.868  29.091  1.00  0.00    +0.000 C 
ATOM     79  C53 UNL A   1      40.848  27.067  28.586  1.00  0.00    +0.000 C 
ATOM     80  N7  UNL A   1      41.150  28.360  28.936  1.00  0.00    +0.000 N 
ATOM     81  C54 UNL A   1      41.082  32.533  30.469  1.00  0.00    +0.000 C 
ATOM     82  C55 UNL A   1      42.248  33.079  30.151  1.00  0.00    +0.000 C 
ATOM     83  C56 UNL A   1      44.837  26.023  26.450  1.00  0.00    +0.000 C 
ATOM     84  C57 UNL A   1      43.667  25.442  26.676  1.00  0.00    +0.000 C 
ATOM    109  H23 UNL A   1      47.811  30.407  26.701  1.00  0.00    +0.000 H 
ATOM    110  H24 UNL A   1      47.031  32.575  27.921  1.00  0.00    +0.000 H 
ATOM    111  H25 UNL A   1      44.008  29.759  28.209  1.00  0.00    +0.000 H 
ATOM    112  H26 UNL A   1      38.113  28.169  30.031  1.00  0.00    +0.000 H 
ATOM    113  H27 UNL A   1      38.955  25.987  29.041  1.00  0.00    +0.000 H 
ATOM    114  H28 UNL A   1      42.025  28.777  28.761  1.00  0.00    +0.000 H 
ATOM    115  H29 UNL A   1      40.293  32.940  30.996  1.00  0.00    +0.000 H 
ATOM    116  H30 UNL A   1      42.520  34.047  30.384  1.00  0.00    +0.000 H 
ATOM    117  H31 UNL A   1      45.632  25.569  25.973  1.00  0.00    +0.000 H 
ATOM    118  H32 UNL A   1      43.342  24.503  26.396  1.00  0.00    +0.000 H 
ENDROOT
BRANCH   28   27
ATOM     27  C19 UNL A   1      40.949  24.834  27.588  1.00  0.00    +0.000 C 
ATOM    107  H21 UNL A   1      38.522  23.520  25.670  1.00  0.00    +0.000 H 
ATOM    108  H22 UNL A   1      39.519  25.648  26.258  1.00  0.00    +0.000 H 
ATOM     85  C58 UNL A   1      41.422  23.643  28.161  1.00  0.00    +0.000 C 
ATOM     86  C59 UNL A   1      40.923  22.410  27.732  1.00  0.00    +0.000 C 
ATOM    120  H34 UNL A   1      41.294  21.534  28.131  1.00  0.00    +0.000 H 
ATOM     24  C16 UNL A   1      39.918  22.368  26.759  1.00  0.00    +0.000 C 
ATOM     25  C17 UNL A   1      39.346  23.552  26.290  1.00  0.00    +0.000 C 
ATOM     26  C18 UNL A   1      39.893  24.776  26.664  1.00  0.00    +0.000 C 
ATOM    119  H33 UNL A   1      42.140  23.679  28.901  1.00  0.00    +0.000 H 
BRANCH   24   22
ATOM     22  C15 UNL A   1      39.509  21.058  26.208  1.00  0.00    +0.000 C 
ATOM     23  O3  UNL A   1      40.233  20.078  26.358  1.00  0.00    +0.000 O 
BRANCH   22   21
ATOM    106  H20 UNL A   1      37.914  21.813  25.248  1.00  0.00    +0.000 H 
ATOM     21  N3  UNL A   1      38.340  20.958  25.487  1.00  0.00    +0.000 N 
BRANCH   21   20
ATOM    105  H19 UNL A   1      37.737  19.030  25.803  1.00  0.00    +0.000 H 
ATOM     20  C14 UNL A   1      37.648  19.763  25.029  1.00  0.00    +0.000 C 
ATOM    104  H18 UNL A   1      38.098  19.440  24.113  1.00  0.00    +0.000 H 
BRANCH   20   19
ATOM     19  C13 UNL A   1      36.159  19.983  24.786  1.00  0.00    +0.000 C 
ATOM    102  H16 UNL A   1      35.950  19.733  23.767  1.00  0.00    +0.000 H 
ATOM    103  H17 UNL A   1      35.650  19.363  25.495  1.00  0.00    +0.000 H 
BRANCH   19   18
ATOM     18  C12 UNL A   1      35.656  21.405  25.034  1.00  0.00    +0.000 C 
ATOM    100  H14 UNL A   1      34.677  21.339  25.460  1.00  0.00    +0.000 H 
ATOM    101  H15 UNL A   1      36.377  21.864  25.678  1.00  0.00    +0.000 H 
BRANCH   18   17
ATOM     17  C11 UNL A   1      35.571  22.301  23.795  1.00  0.00    +0.000 C 
ATOM     98  H12 UNL A   1      36.510  22.248  23.285  1.00  0.00    +0.000 H 
ATOM     99  H13 UNL A   1      34.745  21.932  23.224  1.00  0.00    +0.000 H 
BRANCH   17   16
ATOM     97  H11 UNL A   1      34.299  23.967  23.638  1.00  0.00    +0.000 H 
ATOM     96  H10 UNL A   1      36.044  24.367  23.619  1.00  0.00    +0.000 H 
ATOM     16  C10 UNL A   1      35.265  23.782  24.061  1.00  0.00    +0.000 C 
BRANCH   16   15
ATOM     95  H9  UNL A   1      35.746  25.051  25.695  1.00  0.00    +0.000 H 
ATOM     94  H8  UNL A   1      35.528  23.360  26.134  1.00  0.00    +0.000 H 
ATOM     15  C9  UNL A   1      35.163  24.168  25.536  1.00  0.00    +0.000 C 
BRANCH   15   14
ATOM     93  H7  UNL A   1      33.445  25.361  25.765  1.00  0.00    +0.000 H 
ATOM     14  N2  UNL A   1      33.793  24.452  25.911  1.00  0.00    +0.000 N 
BRANCH   14    2
ATOM      1  O1  UNL A   1      33.176  22.931  27.522  1.00  0.00    +0.000 O 
ATOM      2  C1  UNL A   1      32.954  23.508  26.462  1.00  0.00    +0.000 C 
BRANCH    2    3
ATOM      3  C2  UNL A   1      31.721  23.202  25.619  1.00  0.00    +0.000 C 
ATOM     87  H1  UNL A   1      31.496  24.051  25.008  1.00  0.00    +0.000 H 
ATOM     88  H2  UNL A   1      30.905  22.987  26.277  1.00  0.00    +0.000 H 
BRANCH    3    4
ATOM      4  C3  UNL A   1      31.953  22.005  24.736  1.00  0.00    +0.000 C 
ATOM      5  C4  UNL A   1      31.879  22.179  23.299  1.00  0.00    +0.000 C 
ATOM      6  C5  UNL A   1      32.035  21.136  22.474  1.00  0.00    +0.000 C 
ATOM      7  C6  UNL A   1      32.306  19.776  23.018  1.00  0.00    +0.000 C 
ATOM      8  O2  UNL A   1      32.412  18.843  22.230  1.00  0.00    +0.000 O 
ATOM      9  N1  UNL A   1      32.417  19.695  24.398  1.00  0.00    +0.000 N 
ATOM     13  C8  UNL A   1      32.233  20.787  25.229  1.00  0.00    +0.000 C 
ATOM     89  H3  UNL A   1      31.705  23.117  22.907  1.00  0.00    +0.000 H 
ATOM     90  H4  UNL A   1      31.968  21.275  21.455  1.00  0.00    +0.000 H 
ATOM     92  H6  UNL A   1      32.314  20.662  26.250  1.00  0.00    +0.000 H 
BRANCH    9   10
ATOM     10  C7  UNL A   1      32.681  18.393  24.953  1.00  0.00    +0.000 C 
ATOM     11  F1  UNL A   1      32.905  18.472  26.287  1.00  0.00    +0.000 F 
ATOM     12  F2  UNL A   1      31.637  17.553  24.751  1.00  0.00    +0.000 F 
ATOM     91  H5  UNL A   1      33.550  18.013  24.456  1.00  0.00    +0.000 H 
ENDBRANCH    9   10
ENDBRANCH    3    4
ENDBRANCH    2    3
ENDBRANCH   14    2
ENDBRANCH   15   14
ENDBRANCH   16   15
ENDBRANCH   17   16
ENDBRANCH   18   17
ENDBRANCH   19   18
ENDBRANCH   20   19
ENDBRANCH   21   20
ENDBRANCH   22   21
ENDBRANCH   24   22
ENDBRANCH   28   27
BRANCH   32   33
ATOM     33  C24 UNL A   1      47.119  27.737  26.107  1.00  0.00    +0.000 C 
ATOM     34  C25 UNL A   1      48.195  27.175  26.810  1.00  0.00    +0.000 C 
ATOM     35  F3  UNL A   1      48.180  27.140  28.150  1.00  0.00    +0.000 F 
ATOM     36  C26 UNL A   1      49.300  26.663  26.135  1.00  0.00    +0.000 C 
ATOM     37  F4  UNL A   1      50.328  26.153  26.826  1.00  0.00    +0.000 F 
ATOM     38  C27 UNL A   1      49.340  26.682  24.748  1.00  0.00    +0.000 C 
ATOM     39  F5  UNL A   1      50.399  26.176  24.100  1.00  0.00    +0.000 F 
ATOM     40  C28 UNL A   1      48.284  27.228  24.034  1.00  0.00    +0.000 C 
ATOM     41  F6  UNL A   1      48.317  27.238  22.694  1.00  0.00    +0.000 F 
ATOM     42  C29 UNL A   1      47.187  27.761  24.706  1.00  0.00    +0.000 C 
ATOM     43  F7  UNL A   1      46.181  28.283  23.989  1.00  0.00    +0.000 F 
ENDBRANCH   32   33
BRANCH   49   50
ATOM     50  C35 UNL A   1      44.906  33.771  29.337  1.00  0.00    +0.000 C 
ATOM     51  C36 UNL A   1      44.697  34.853  28.470  1.00  0.00    +0.000 C 
ATOM     52  F8  UNL A   1      44.057  34.671  27.304  1.00  0.00    +0.000 F 
ATOM     53  C37 UNL A   1      45.168  36.124  28.788  1.00  0.00    +0.000 C 
ATOM     54  F9  UNL A   1      44.983  37.139  27.933  1.00  0.00    +0.000 F 
ATOM     55  C38 UNL A   1      45.832  36.340  29.987  1.00  0.00    +0.000 C 
ATOM     56  F10 UNL A   1      46.275  37.567  30.296  1.00  0.00    +0.000 F 
ATOM     57  C39 UNL A   1      46.043  35.285  30.861  1.00  0.00    +0.000 C 
ATOM     58  F11 UNL A   1      46.676  35.495  32.023  1.00  0.00    +0.000 F 
ATOM     59  C40 UNL A   1      45.592  34.009  30.536  1.00  0.00    +0.000 C 
ATOM     60  F12 UNL A   1      45.811  33.006  31.401  1.00  0.00    +0.000 F 
ENDBRANCH   49   50
BRANCH   64   65
ATOM     65  C44 UNL A   1      38.768  30.743  30.644  1.00  0.00    +0.000 C 
ATOM     66  C45 UNL A   1      37.717  31.241  29.865  1.00  0.00    +0.000 C 
ATOM     67  F13 UNL A   1      37.861  31.351  28.536  1.00  0.00    +0.000 F 
ATOM     68  C46 UNL A   1      36.522  31.652  30.451  1.00  0.00    +0.000 C 
ATOM     69  F14 UNL A   1      35.539  32.149  29.687  1.00  0.00    +0.000 F 
ATOM     70  C47 UNL A   1      36.348  31.551  31.823  1.00  0.00    +0.000 C 
ATOM     71  F15 UNL A   1      35.193  31.931  32.384  1.00  0.00    +0.000 F 
ATOM     72  C48 UNL A   1      37.375  31.056  32.614  1.00  0.00    +0.000 C 
ATOM     73  F16 UNL A   1      37.207  30.944  33.938  1.00  0.00    +0.000 F 
ATOM     74  C49 UNL A   1      38.579  30.669  32.032  1.00  0.00    +0.000 C 
ATOM     75  F17 UNL A   1      39.558  30.197  32.818  1.00  0.00    +0.000 F 
ENDBRANCH   64   65
TORSDOF 17
ENDMDL
MODEL 5
REMARK VINA RESULT:     -10.3      4.732      9.764
ROOT
ATOM     28  C20 UNL A   1      41.701  26.034  27.904  1.00  0.00    +0.000 C 
ATOM     29  C21 UNL A   1      43.064  26.397  27.376  1.00  0.00    +0.000 C 
ATOM     30  N4  UNL A   1      43.727  27.520  27.504  1.00  0.00    +0.000 N 
ATOM     31  C22 UNL A   1      44.935  27.326  26.846  1.00  0.00    +0.000 C 
ATOM     32  C23 UNL A   1      45.950  28.204  26.667  1.00  0.00    +0.000 C 
ATOM     44  C30 UNL A   1      45.948  29.562  27.144  1.00  0.00    +0.000 C 
ATOM     45  C31 UNL A   1      46.926  30.531  26.991  1.00  0.00    +0.000 C 
ATOM     46  C32 UNL A   1      46.498  31.692  27.643  1.00  0.00    +0.000 C 
ATOM     47  C33 UNL A   1      45.240  31.457  28.172  1.00  0.00    +0.000 C 
ATOM     48  N5  UNL A   1      44.916  30.146  27.861  1.00  0.00    +0.000 N 
ATOM     49  C34 UNL A   1      44.395  32.359  28.911  1.00  0.00    +0.000 C 
ATOM     61  C41 UNL A   1      43.152  32.067  29.361  1.00  0.00    +0.000 C 
ATOM     62  N6  UNL A   1      42.438  30.883  29.235  1.00  0.00    +0.000 N 
ATOM     63  C42 UNL A   1      41.303  31.081  29.858  1.00  0.00    +0.000 C 
ATOM     64  C43 UNL A   1      40.146  30.140  30.038  1.00  0.00    +0.000 C 
ATOM     76  C50 UNL A   1      40.243  28.878  29.581  1.00  0.00    +0.000 C 
ATOM     77  C51 UNL A   1      39.204  27.858  29.693  1.00  0.00    +0.000 C 
ATOM     78  C52 UNL A   1      39.649  26.717  29.145  1.00  0.00    +0.000 C 
ATOM     79  C53 UNL A   1      40.987  26.942  28.597  1.00  0.00    +0.000 C 
ATOM     80  N7  UNL A   1      41.273  28.242  28.933  1.00  0.00    +0.000 N 
ATOM     81  C54 UNL A   1      41.167  32.419  30.454  1.00  0.00    +0.000 C 
ATOM     82  C55 UNL A   1      42.311  32.987  30.098  1.00  0.00    +0.000 C 
ATOM     83  C56 UNL A   1      44.928  25.971  26.340  1.00  0.00    +0.000 C 
ATOM     84  C57 UNL A   1      43.777  25.367  26.605  1.00  0.00    +0.000 C 
ATOM    109  H23 UNL A   1      47.817  30.416  26.483  1.00  0.00    +0.000 H 
ATOM    110  H24 UNL A   1      47.030  32.573  27.720  1.00  0.00    +0.000 H 
ATOM    111  H25 UNL A   1      44.077  29.696  28.112  1.00  0.00    +0.000 H 
ATOM    112  H26 UNL A   1      38.276  27.992  30.124  1.00  0.00    +0.000 H 
ATOM    113  H27 UNL A   1      39.132  25.824  29.115  1.00  0.00    +0.000 H 
ATOM    114  H28 UNL A   1      42.133  28.675  28.729  1.00  0.00    +0.000 H 
ATOM    115  H29 UNL A   1      40.387  32.811  31.004  1.00  0.00    +0.000 H 
ATOM    116  H30 UNL A   1      42.569  33.962  30.318  1.00  0.00    +0.000 H 
ATOM    117  H31 UNL A   1      45.716  25.532  25.840  1.00  0.00    +0.000 H 
ATOM    118  H32 UNL A   1      43.464  24.421  26.338  1.00  0.00    +0.000 H 
ENDROOT
BRANCH   28   27
ATOM     27  C19 UNL A   1      41.103  24.707  27.604  1.00  0.00    +0.000 C 
ATOM    107  H21 UNL A   1      38.684  23.328  25.721  1.00  0.00    +0.000 H 
ATOM    108  H22 UNL A   1      39.653  25.479  26.271  1.00  0.00    +0.000 H 
ATOM     85  C58 UNL A   1      41.596  23.532  28.192  1.00  0.00    +0.000 C 
ATOM     86  C59 UNL A   1      41.113  22.286  27.785  1.00  0.00    +0.000 C 
ATOM    120  H34 UNL A   1      41.500  21.421  28.195  1.00  0.00    +0.000 H 
ATOM     24  C16 UNL A   1      40.103  22.214  26.819  1.00  0.00    +0.000 C 
ATOM     25  C17 UNL A   1      39.511  23.382  26.336  1.00  0.00    +0.000 C 
ATOM     26  C18 UNL A   1      40.042  24.619  26.688  1.00  0.00    +0.000 C 
ATOM    119  H33 UNL A   1      42.318  23.589  28.927  1.00  0.00    +0.000 H 
BRANCH   24   22
ATOM     22  C15 UNL A   1      39.710  20.890  26.290  1.00  0.00    +0.000 C 
ATOM     23  O3  UNL A   1      40.396  19.902  26.541  1.00  0.00    +0.000 O 
BRANCH   22   21
ATOM    106  H20 UNL A   1      38.217  21.634  25.171  1.00  0.00    +0.000 H 
ATOM     21  N3  UNL A   1      38.602  20.782  25.479  1.00  0.00    +0.000 N 
BRANCH   21   20
ATOM    105  H19 UNL A   1      38.029  18.842  25.779  1.00  0.00    +0.000 H 
ATOM     20  C14 UNL A   1      37.923  19.582  25.014  1.00  0.00    +0.000 C 
ATOM    104  H18 UNL A   1      38.369  19.276  24.091  1.00  0.00    +0.000 H 
BRANCH   20   19
ATOM     19  C13 UNL A   1      36.429  19.784  24.787  1.00  0.00    +0.000 C 
ATOM    102  H16 UNL A   1      36.231  19.631  23.746  1.00  0.00    +0.000 H 
ATOM    103  H17 UNL A   1      35.936  19.083  25.426  1.00  0.00    +0.000 H 
BRANCH   19   18
ATOM     18  C12 UNL A   1      35.885  21.160  25.172  1.00  0.00    +0.000 C 
ATOM    100  H14 UNL A   1      34.926  21.020  25.623  1.00  0.00    +0.000 H 
ATOM    101  H15 UNL A   1      36.613  21.589  25.830  1.00  0.00    +0.000 H 
BRANCH   18   17
ATOM     17  C11 UNL A   1      35.724  22.154  24.019  1.00  0.00    +0.000 C 
ATOM     98  H12 UNL A   1      36.599  22.092  23.407  1.00  0.00    +0.000 H 
ATOM     99  H13 UNL A   1      34.821  21.874  23.518  1.00  0.00    +0.000 H 
BRANCH   17   16
ATOM     97  H11 UNL A   1      34.648  23.957  23.931  1.00  0.00    +0.000 H 
ATOM     96  H10 UNL A   1      36.414  24.162  24.135  1.00  0.00    +0.000 H 
ATOM     16  C10 UNL A   1      35.537  23.623  24.425  1.00  0.00    +0.000 C 
BRANCH   16   15
ATOM     95  H9  UNL A   1      35.813  24.760  26.198  1.00  0.00    +0.000 H 
ATOM     94  H8  UNL A   1      35.691  23.025  26.465  1.00  0.00    +0.000 H 
ATOM     15  C9  UNL A   1      35.308  23.860  25.917  1.00  0.00    +0.000 C 
BRANCH   15   14
ATOM     93  H7  UNL A   1      33.469  24.876  26.013  1.00  0.00    +0.000 H 
ATOM     14  N2  UNL A   1      33.900  24.014  26.215  1.00  0.00    +0.000 N 
BRANCH   14    2
ATOM      1  O1  UNL A   1      33.414  22.433  27.812  1.00  0.00    +0.000 O 
ATOM      2  C1  UNL A   1      33.134  23.010  26.766  1.00  0.00    +0.000 C 
BRANCH    2    3
ATOM      3  C2  UNL A   1      31.905  22.640  25.943  1.00  0.00    +0.000 C 
ATOM     87  H1  UNL A   1      31.650  23.461  25.306  1.00  0.00    +0.000 H 
ATOM     88  H2  UNL A   1      31.100  22.420  26.613  1.00  0.00    +0.000 H 
BRANCH    3    4
ATOM      4  C3  UNL A   1      32.169  21.423  25.096  1.00  0.00    +0.000 C 
ATOM      5  C4  UNL A   1      32.121  21.559  23.653  1.00  0.00    +0.000 C 
ATOM      6  C5  UNL A   1      32.306  20.496  22.859  1.00  0.00    +0.000 C 
ATOM      7  C6  UNL A   1      32.582  19.155  23.444  1.00  0.00    +0.000 C 
ATOM      8  O2  UNL A   1      32.714  18.203  22.683  1.00  0.00    +0.000 O 
ATOM      9  N1  UNL A   1      32.667  19.111  24.827  1.00  0.00    +0.000 N 
ATOM     13  C8  UNL A   1      32.454  20.222  25.625  1.00  0.00    +0.000 C 
ATOM     89  H3  UNL A   1      31.944  22.484  23.234  1.00  0.00    +0.000 H 
ATOM     90  H4  UNL A   1      32.257  20.609  21.836  1.00  0.00    +0.000 H 
ATOM     92  H6  UNL A   1      32.516  20.125  26.651  1.00  0.00    +0.000 H 
BRANCH    9   10
ATOM     10  C7  UNL A   1      32.936  17.827  25.421  1.00  0.00    +0.000 C 
ATOM     11  F1  UNL A   1      31.932  16.954  25.161  1.00  0.00    +0.000 F 
ATOM     12  F2  UNL A   1      34.087  17.297  24.941  1.00  0.00    +0.000 F 
ATOM     91  H5  UNL A   1      33.023  17.984  26.476  1.00  0.00    +0.000 H 
ENDBRANCH    9   10
ENDBRANCH    3    4
ENDBRANCH    2    3
ENDBRANCH   14    2
ENDBRANCH   15   14
ENDBRANCH   16   15
ENDBRANCH   17   16
ENDBRANCH   18   17
ENDBRANCH   19   18
ENDBRANCH   20   19
ENDBRANCH   21   20
ENDBRANCH   22   21
ENDBRANCH   24   22
ENDBRANCH   28   27
BRANCH   32   33
ATOM     33  C24 UNL A   1      47.161  27.730  25.920  1.00  0.00    +0.000 C 
ATOM     34  C25 UNL A   1      47.235  27.806  24.521  1.00  0.00    +0.000 C 
ATOM     35  F3  UNL A   1      46.181  28.238  23.813  1.00  0.00    +0.000 F 
ATOM     36  C26 UNL A   1      48.388  27.419  23.844  1.00  0.00    +0.000 C 
ATOM     37  F4  UNL A   1      48.428  27.476  22.505  1.00  0.00    +0.000 F 
ATOM     38  C27 UNL A   1      49.495  26.972  24.551  1.00  0.00    +0.000 C 
ATOM     39  F5  UNL A   1      50.609  26.613  23.897  1.00  0.00    +0.000 F 
ATOM     40  C28 UNL A   1      49.446  26.895  25.934  1.00  0.00    +0.000 C 
ATOM     41  F6  UNL A   1      50.518  26.474  26.620  1.00  0.00    +0.000 F 
ATOM     42  C29 UNL A   1      48.286  27.260  26.614  1.00  0.00    +0.000 C 
ATOM     43  F7  UNL A   1      48.268  27.175  27.952  1.00  0.00    +0.000 F 
ENDBRANCH   32   33
BRANCH   49   50
ATOM     50  C35 UNL A   1      44.927  33.730  29.198  1.00  0.00    +0.000 C 
ATOM     51  C36 UNL A   1      45.725  33.978  30.324  1.00  0.00    +0.000 C 
ATOM     52  F8  UNL A   1      45.967  32.999  31.209  1.00  0.00    +0.000 F 
ATOM     53  C37 UNL A   1      46.257  35.243  30.556  1.00  0.00    +0.000 C 
ATOM     54  F9  UNL A   1      46.994  35.467  31.653  1.00  0.00    +0.000 F 
ATOM     55  C38 UNL A   1      46.023  36.274  29.657  1.00  0.00    +0.000 C 
ATOM     56  F10 UNL A   1      46.545  37.488  29.877  1.00  0.00    +0.000 F 
ATOM     57  C39 UNL A   1      45.242  36.047  28.534  1.00  0.00    +0.000 C 
ATOM     58  F11 UNL A   1      45.023  37.040  27.660  1.00  0.00    +0.000 F 
ATOM     59  C40 UNL A   1      44.691  34.789  28.309  1.00  0.00    +0.000 C 
ATOM     60  F12 UNL A   1      43.938  34.598  27.215  1.00  0.00    +0.000 F 
ENDBRANCH   49   50
BRANCH   64   65
ATOM     65  C44 UNL A   1      38.897  30.582  30.707  1.00  0.00    +0.000 C 
ATOM     66  C45 UNL A   1      38.778  30.540  32.102  1.00  0.00    +0.000 C 
ATOM     67  F13 UNL A   1      39.780  30.048  32.846  1.00  0.00    +0.000 F 
ATOM     68  C46 UNL A   1      37.619  30.981  32.736  1.00  0.00    +0.000 C 
ATOM     69  F14 UNL A   1      37.518  30.909  34.071  1.00  0.00    +0.000 F 
ATOM     70  C47 UNL A   1      36.568  31.493  31.990  1.00  0.00    +0.000 C 
ATOM     71  F15 UNL A   1      35.460  31.932  32.601  1.00  0.00    +0.000 F 
ATOM     72  C48 UNL A   1      36.667  31.548  30.607  1.00  0.00    +0.000 C 
ATOM     73  F16 UNL A   1      35.659  32.053  29.882  1.00  0.00    +0.000 F 
ATOM     74  C49 UNL A   1      37.814  31.084  29.970  1.00  0.00    +0.000 C 
ATOM     75  F17 UNL A   1      37.884  31.144  28.632  1.00  0.00    +0.000 F 
ENDBRANCH   64   65
TORSDOF 17
ENDMDL
MODEL 6
REMARK VINA RESULT:     -10.3     20.027     25.877
ROOT
ATOM     28  C20 UNL A   1      52.551  20.108  11.339  1.00  0.00    +0.000 C 
ATOM     29  C21 UNL A   1      53.888  19.484  11.033  1.00  0.00    +0.000 C 
ATOM     30  N4  UNL A   1      54.939  19.362  11.804  1.00  0.00    +0.000 N 
ATOM     31  C22 UNL A   1      55.895  18.701  11.044  1.00  0.00    +0.000 C 
ATOM     32  C23 UNL A   1      57.163  18.370  11.384  1.00  0.00    +0.000 C 
ATOM     44  C30 UNL A   1      57.773  18.670  12.653  1.00  0.00    +0.000 C 
ATOM     45  C31 UNL A   1      59.062  18.390  13.078  1.00  0.00    +0.000 C 
ATOM     46  C32 UNL A   1      59.197  18.846  14.393  1.00  0.00    +0.000 C 
ATOM     47  C33 UNL A   1      58.006  19.441  14.774  1.00  0.00    +0.000 C 
ATOM     48  N5  UNL A   1      57.141  19.323  13.699  1.00  0.00    +0.000 N 
ATOM     49  C34 UNL A   1      57.678  20.067  16.029  1.00  0.00    +0.000 C 
ATOM     61  C41 UNL A   1      56.497  20.667  16.312  1.00  0.00    +0.000 C 
ATOM     62  N6  UNL A   1      55.375  20.802  15.507  1.00  0.00    +0.000 N 
ATOM     63  C42 UNL A   1      54.485  21.428  16.235  1.00  0.00    +0.000 C 
ATOM     64  C43 UNL A   1      53.087  21.841  15.871  1.00  0.00    +0.000 C 
ATOM     76  C50 UNL A   1      52.587  21.497  14.669  1.00  0.00    +0.000 C 
ATOM     77  C51 UNL A   1      51.248  21.823  14.188  1.00  0.00    +0.000 C 
ATOM     78  C52 UNL A   1      51.086  21.309  12.959  1.00  0.00    +0.000 C 
ATOM     79  C53 UNL A   1      52.331  20.660  12.547  1.00  0.00    +0.000 C 
ATOM     80  N7  UNL A   1      53.154  20.789  13.638  1.00  0.00    +0.000 N 
ATOM     81  C54 UNL A   1      54.941  21.760  17.592  1.00  0.00    +0.000 C 
ATOM     82  C55 UNL A   1      56.184  21.298  17.577  1.00  0.00    +0.000 C 
ATOM     83  C56 UNL A   1      55.295  18.424   9.758  1.00  0.00    +0.000 C 
ATOM     84  C57 UNL A   1      54.069  18.924   9.684  1.00  0.00    +0.000 C 
ATOM    109  H23 UNL A   1      59.795  17.925  12.520  1.00  0.00    +0.000 H 
ATOM    110  H24 UNL A   1      60.041  18.753  14.980  1.00  0.00    +0.000 H 
ATOM    111  H25 UNL A   1      56.213  19.653  13.680  1.00  0.00    +0.000 H 
ATOM    112  H26 UNL A   1      50.539  22.364  14.709  1.00  0.00    +0.000 H 
ATOM    113  H27 UNL A   1      50.223  21.362  12.396  1.00  0.00    +0.000 H 
ATOM    114  H28 UNL A   1      54.062  20.412  13.677  1.00  0.00    +0.000 H 
ATOM    115  H29 UNL A   1      54.429  22.230  18.355  1.00  0.00    +0.000 H 
ATOM    116  H30 UNL A   1      56.844  21.378  18.367  1.00  0.00    +0.000 H 
ATOM    117  H31 UNL A   1      55.760  17.903   8.998  1.00  0.00    +0.000 H 
ATOM    118  H32 UNL A   1      53.413  18.921   8.887  1.00  0.00    +0.000 H 
ENDROOT
BRANCH   28   27
ATOM     27  C19 UNL A   1      51.496  20.187  10.295  1.00  0.00    +0.000 C 
ATOM    107  H21 UNL A   1      50.045  22.426   8.251  1.00  0.00    +0.000 H 
ATOM    108  H22 UNL A   1      51.724  22.268   9.990  1.00  0.00    +0.000 H 
ATOM     85  C58 UNL A   1      50.784  19.048   9.887  1.00  0.00    +0.000 C 
ATOM     86  C59 UNL A   1      49.901  19.122   8.806  1.00  0.00    +0.000 C 
ATOM    120  H34 UNL A   1      49.402  18.276   8.486  1.00  0.00    +0.000 H 
ATOM     24  C16 UNL A   1      49.697  20.345   8.158  1.00  0.00    +0.000 C 
ATOM     25  C17 UNL A   1      50.294  21.507   8.649  1.00  0.00    +0.000 C 
ATOM     26  C18 UNL A   1      51.226  21.419   9.678  1.00  0.00    +0.000 C 
ATOM    119  H33 UNL A   1      50.912  18.155  10.387  1.00  0.00    +0.000 H 
BRANCH   24   22
ATOM     22  C15 UNL A   1      48.879  20.375   6.925  1.00  0.00    +0.000 C 
ATOM     23  O3  UNL A   1      48.663  21.444   6.361  1.00  0.00    +0.000 O 
BRANCH   22   21
ATOM    106  H20 UNL A   1      48.941  18.446   6.373  1.00  0.00    +0.000 H 
ATOM     21  N3  UNL A   1      48.325  19.209   6.447  1.00  0.00    +0.000 N 
BRANCH   21   20
ATOM    105  H19 UNL A   1      46.333  19.661   6.540  1.00  0.00    +0.000 H 
ATOM     20  C14 UNL A   1      46.954  18.951   6.036  1.00  0.00    +0.000 C 
ATOM    104  H18 UNL A   1      46.706  17.942   6.295  1.00  0.00    +0.000 H 
BRANCH   20   19
ATOM     19  C13 UNL A   1      46.727  19.136   4.539  1.00  0.00    +0.000 C 
ATOM    102  H16 UNL A   1      47.601  19.595   4.127  1.00  0.00    +0.000 H 
ATOM    103  H17 UNL A   1      46.527  18.161   4.149  1.00  0.00    +0.000 H 
BRANCH   19   18
ATOM     18  C12 UNL A   1      45.521  19.997   4.159  1.00  0.00    +0.000 C 
ATOM    100  H14 UNL A   1      44.704  19.714   4.788  1.00  0.00    +0.000 H 
ATOM    101  H15 UNL A   1      45.834  21.013   4.288  1.00  0.00    +0.000 H 
BRANCH   18   17
ATOM     17  C11 UNL A   1      45.060  19.882   2.704  1.00  0.00    +0.000 C 
ATOM     98  H12 UNL A   1      45.207  20.832   2.236  1.00  0.00    +0.000 H 
ATOM     99  H13 UNL A   1      45.640  19.091   2.276  1.00  0.00    +0.000 H 
BRANCH   17   16
ATOM     97  H11 UNL A   1      43.126  19.550   3.458  1.00  0.00    +0.000 H 
ATOM     96  H10 UNL A   1      43.574  18.492   2.086  1.00  0.00    +0.000 H 
ATOM     16  C10 UNL A   1      43.592  19.480   2.498  1.00  0.00    +0.000 C 
BRANCH   16   15
ATOM     95  H9  UNL A   1      43.435  21.183   1.238  1.00  0.00    +0.000 H 
ATOM     94  H8  UNL A   1      41.955  20.787   2.104  1.00  0.00    +0.000 H 
ATOM     15  C9  UNL A   1      42.793  20.394   1.570  1.00  0.00    +0.000 C 
BRANCH   15   14
ATOM     93  H7  UNL A   1      42.824  18.888   0.101  1.00  0.00    +0.000 H 
ATOM     14  N2  UNL A   1      42.317  19.675   0.407  1.00  0.00    +0.000 N 
BRANCH   14    2
ATOM      1  O1  UNL A   1      40.563  19.282  -1.028  1.00  0.00    +0.000 O 
ATOM      2  C1  UNL A   1      41.185  20.040  -0.290  1.00  0.00    +0.000 C 
BRANCH    2    3
ATOM      3  C2  UNL A   1      40.777  21.496  -0.097  1.00  0.00    +0.000 C 
ATOM     87  H1  UNL A   1      41.029  22.049  -0.978  1.00  0.00    +0.000 H 
ATOM     88  H2  UNL A   1      41.297  21.885   0.753  1.00  0.00    +0.000 H 
BRANCH    3    4
ATOM      4  C3  UNL A   1      39.297  21.613   0.152  1.00  0.00    +0.000 C 
ATOM      5  C4  UNL A   1      38.756  21.074   1.384  1.00  0.00    +0.000 C 
ATOM      6  C5  UNL A   1      37.440  21.116   1.630  1.00  0.00    +0.000 C 
ATOM      7  C6  UNL A   1      36.507  21.735   0.649  1.00  0.00    +0.000 C 
ATOM      8  O2  UNL A   1      35.307  21.725   0.899  1.00  0.00    +0.000 O 
ATOM      9  N1  UNL A   1      37.100  22.278  -0.481  1.00  0.00    +0.000 N 
ATOM     13  C8  UNL A   1      38.462  22.205  -0.719  1.00  0.00    +0.000 C 
ATOM     89  H3  UNL A   1      39.391  20.654   2.079  1.00  0.00    +0.000 H 
ATOM     90  H4  UNL A   1      37.071  20.718   2.507  1.00  0.00    +0.000 H 
ATOM     92  H6  UNL A   1      38.845  22.615  -1.586  1.00  0.00    +0.000 H 
BRANCH    9   10
ATOM     10  C7  UNL A   1      36.222  22.886  -1.447  1.00  0.00    +0.000 C 
ATOM     11  F1  UNL A   1      35.916  24.157  -1.089  1.00  0.00    +0.000 F 
ATOM     12  F2  UNL A   1      36.796  22.923  -2.674  1.00  0.00    +0.000 F 
ATOM     91  H5  UNL A   1      35.334  22.289  -1.481  1.00  0.00    +0.000 H 
ENDBRANCH    9   10
ENDBRANCH    3    4
ENDBRANCH    2    3
ENDBRANCH   14    2
ENDBRANCH   15   14
ENDBRANCH   16   15
ENDBRANCH   17   16
ENDBRANCH   18   17
ENDBRANCH   19   18
ENDBRANCH   20   19
ENDBRANCH   21   20
ENDBRANCH   22   21
ENDBRANCH   24   22
ENDBRANCH   28   27
BRANCH   32   33
ATOM     33  C24 UNL A   1      57.992  17.640  10.369  1.00  0.00    +0.000 C 
ATOM     34  C25 UNL A   1      58.050  16.239  10.344  1.00  0.00    +0.000 C 
ATOM     35  F3  UNL A   1      57.421  15.520  11.285  1.00  0.00    +0.000 F 
ATOM     36  C26 UNL A   1      58.775  15.571   9.359  1.00  0.00    +0.000 C 
ATOM     37  F4  UNL A   1      58.838  14.232   9.369  1.00  0.00    +0.000 F 
ATOM     38  C27 UNL A   1      59.433  16.288   8.371  1.00  0.00    +0.000 C 
ATOM     39  F5  UNL A   1      60.118  15.643   7.417  1.00  0.00    +0.000 F 
ATOM     40  C28 UNL A   1      59.383  17.674   8.373  1.00  0.00    +0.000 C 
ATOM     41  F6  UNL A   1      60.008  18.368   7.413  1.00  0.00    +0.000 F 
ATOM     42  C29 UNL A   1      58.678  18.345   9.369  1.00  0.00    +0.000 C 
ATOM     43  F7  UNL A   1      58.647  19.686   9.346  1.00  0.00    +0.000 F 
ENDBRANCH   32   33
BRANCH   49   50
ATOM     50  C35 UNL A   1      58.724  20.062  17.102  1.00  0.00    +0.000 C 
ATOM     51  C36 UNL A   1      58.995  18.905  17.846  1.00  0.00    +0.000 C 
ATOM     52  F8  UNL A   1      58.267  17.795  17.658  1.00  0.00    +0.000 F 
ATOM     53  C37 UNL A   1      60.003  18.895  18.806  1.00  0.00    +0.000 C 
ATOM     54  F9  UNL A   1      60.228  17.788  19.527  1.00  0.00    +0.000 F 
ATOM     55  C38 UNL A   1      60.772  20.030  19.021  1.00  0.00    +0.000 C 
ATOM     56  F10 UNL A   1      61.749  20.014  19.938  1.00  0.00    +0.000 F 
ATOM     57  C39 UNL A   1      60.525  21.182  18.290  1.00  0.00    +0.000 C 
ATOM     58  F11 UNL A   1      61.273  22.275  18.491  1.00  0.00    +0.000 F 
ATOM     59  C40 UNL A   1      59.503  21.202  17.344  1.00  0.00    +0.000 C 
ATOM     60  F12 UNL A   1      59.284  22.331  16.653  1.00  0.00    +0.000 F 
ENDBRANCH   49   50
BRANCH   64   65
ATOM     65  C44 UNL A   1      52.252  22.626  16.813  1.00  0.00    +0.000 C 
ATOM     66  C45 UNL A   1      51.545  21.994  17.844  1.00  0.00    +0.000 C 
ATOM     67  F13 UNL A   1      51.577  20.657  17.956  1.00  0.00    +0.000 F 
ATOM     68  C46 UNL A   1      50.784  22.730  18.749  1.00  0.00    +0.000 C 
ATOM     69  F14 UNL A   1      50.097  22.100  19.712  1.00  0.00    +0.000 F 
ATOM     70  C47 UNL A   1      50.733  24.113  18.653  1.00  0.00    +0.000 C 
ATOM     71  F15 UNL A   1      50.013  24.821  19.533  1.00  0.00    +0.000 F 
ATOM     72  C48 UNL A   1      51.428  24.761  17.643  1.00  0.00    +0.000 C 
ATOM     73  F16 UNL A   1      51.393  26.097  17.554  1.00  0.00    +0.000 F 
ATOM     74  C49 UNL A   1      52.169  24.024  16.722  1.00  0.00    +0.000 C 
ATOM     75  F17 UNL A   1      52.830  24.673  15.753  1.00  0.00    +0.000 F 
ENDBRANCH   64   65
TORSDOF 17
ENDMDL
MODEL 7
REMARK VINA RESULT:     -10.2     37.703     43.023
ROOT
ATOM     28  C20 UNL A   1      13.687  53.471   5.913  1.00  0.00    +0.000 C 
ATOM     29  C21 UNL A   1      13.227  52.042   5.783  1.00  0.00    +0.000 C 
ATOM     30  N4  UNL A   1      13.552  51.147   4.884  1.00  0.00    +0.000 N 
ATOM     31  C22 UNL A   1      12.863  49.992   5.229  1.00  0.00    +0.000 C 
ATOM     32  C23 UNL A   1      12.841  48.799   4.589  1.00  0.00    +0.000 C 
ATOM     44  C30 UNL A   1      13.558  48.510   3.375  1.00  0.00    +0.000 C 
ATOM     45  C31 UNL A   1      13.578  47.333   2.645  1.00  0.00    +0.000 C 
ATOM     46  C32 UNL A   1      14.434  47.511   1.553  1.00  0.00    +0.000 C 
ATOM     47  C33 UNL A   1      14.918  48.808   1.583  1.00  0.00    +0.000 C 
ATOM     48  N5  UNL A   1      14.375  49.409   2.708  1.00  0.00    +0.000 N 
ATOM     49  C34 UNL A   1      15.814  49.453   0.659  1.00  0.00    +0.000 C 
ATOM     61  C41 UNL A   1      16.211  50.745   0.734  1.00  0.00    +0.000 C 
ATOM     62  N6  UNL A   1      15.876  51.704   1.680  1.00  0.00    +0.000 N 
ATOM     63  C42 UNL A   1      16.530  52.786   1.341  1.00  0.00    +0.000 C 
ATOM     64  C43 UNL A   1      16.543  54.132   2.009  1.00  0.00    +0.000 C 
ATOM     76  C50 UNL A   1      15.863  54.306   3.157  1.00  0.00    +0.000 C 
ATOM     77  C51 UNL A   1      15.793  55.553   3.915  1.00  0.00    +0.000 C 
ATOM     78  C52 UNL A   1      15.044  55.358   5.011  1.00  0.00    +0.000 C 
ATOM     79  C53 UNL A   1      14.538  53.985   5.005  1.00  0.00    +0.000 C 
ATOM     80  N7  UNL A   1      15.103  53.425   3.886  1.00  0.00    +0.000 N 
ATOM     81  C54 UNL A   1      17.361  52.637   0.137  1.00  0.00    +0.000 C 
ATOM     82  C55 UNL A   1      17.108  51.382  -0.208  1.00  0.00    +0.000 C 
ATOM     83  C56 UNL A   1      12.119  50.287   6.433  1.00  0.00    +0.000 C 
ATOM     84  C57 UNL A   1      12.276  51.554   6.795  1.00  0.00    +0.000 C 
ATOM    109  H23 UNL A   1      13.053  46.474   2.868  1.00  0.00    +0.000 H 
ATOM    110  H24 UNL A   1      14.667  46.796   0.846  1.00  0.00    +0.000 H 
ATOM    111  H25 UNL A   1      14.545  50.336   2.991  1.00  0.00    +0.000 H 
ATOM    112  H26 UNL A   1      16.247  56.441   3.651  1.00  0.00    +0.000 H 
ATOM    113  H27 UNL A   1      14.855  56.063   5.741  1.00  0.00    +0.000 H 
ATOM    114  H28 UNL A   1      14.977  52.482   3.632  1.00  0.00    +0.000 H 
ATOM    115  H29 UNL A   1      17.978  53.327  -0.319  1.00  0.00    +0.000 H 
ATOM    116  H30 UNL A   1      17.501  50.917  -1.042  1.00  0.00    +0.000 H 
ATOM    117  H31 UNL A   1      11.543  49.602   6.945  1.00  0.00    +0.000 H 
ATOM    118  H32 UNL A   1      11.843  52.064   7.581  1.00  0.00    +0.000 H 
ENDROOT
BRANCH   28   27
ATOM     27  C19 UNL A   1      13.154  54.343   6.991  1.00  0.00    +0.000 C 
ATOM    107  H21 UNL A   1      10.578  56.413   7.606  1.00  0.00    +0.000 H 
ATOM    108  H22 UNL A   1      11.503  55.019   5.854  1.00  0.00    +0.000 H 
ATOM     85  C58 UNL A   1      13.793  54.440   8.237  1.00  0.00    +0.000 C 
ATOM     86  C59 UNL A   1      13.195  55.152   9.281  1.00  0.00    +0.000 C 
ATOM    120  H34 UNL A   1      13.651  55.195  10.206  1.00  0.00    +0.000 H 
ATOM     24  C16 UNL A   1      11.976  55.804   9.067  1.00  0.00    +0.000 C 
ATOM     25  C17 UNL A   1      11.408  55.828   7.793  1.00  0.00    +0.000 C 
ATOM     26  C18 UNL A   1      11.966  55.061   6.775  1.00  0.00    +0.000 C 
ATOM    119  H33 UNL A   1      14.708  53.985   8.382  1.00  0.00    +0.000 H 
BRANCH   24   22
ATOM     22  C15 UNL A   1      11.283  56.424  10.218  1.00  0.00    +0.000 C 
ATOM     23  O3  UNL A   1      11.156  57.644  10.271  1.00  0.00    +0.000 O 
BRANCH   22   21
ATOM    106  H20 UNL A   1      10.101  55.009  11.014  1.00  0.00    +0.000 H 
ATOM     21  N3  UNL A   1      10.828  55.630  11.246  1.00  0.00    +0.000 N 
BRANCH   21   20
ATOM    105  H19 UNL A   1      10.484  55.146  13.203  1.00  0.00    +0.000 H 
ATOM     20  C14 UNL A   1      11.275  55.581  12.630  1.00  0.00    +0.000 C 
ATOM    104  H18 UNL A   1      11.503  56.577  12.948  1.00  0.00    +0.000 H 
BRANCH   20   19
ATOM     19  C13 UNL A   1      12.511  54.712  12.836  1.00  0.00    +0.000 C 
ATOM    102  H16 UNL A   1      12.854  54.395  11.874  1.00  0.00    +0.000 H 
ATOM    103  H17 UNL A   1      13.214  55.320  13.366  1.00  0.00    +0.000 H 
BRANCH   19   18
ATOM     18  C12 UNL A   1      12.302  53.465  13.696  1.00  0.00    +0.000 C 
ATOM    100  H14 UNL A   1      13.075  53.441  14.434  1.00  0.00    +0.000 H 
ATOM    101  H15 UNL A   1      11.316  53.553  14.105  1.00  0.00    +0.000 H 
BRANCH   18   17
ATOM     17  C11 UNL A   1      12.325  52.132  12.943  1.00  0.00    +0.000 C 
ATOM     98  H12 UNL A   1      13.240  51.634  13.184  1.00  0.00    +0.000 H 
ATOM     99  H13 UNL A   1      11.447  51.606  13.256  1.00  0.00    +0.000 H 
BRANCH   17   16
ATOM     97  H11 UNL A   1      12.606  53.193  11.150  1.00  0.00    +0.000 H 
ATOM     96  H10 UNL A   1      11.209  52.075  11.134  1.00  0.00    +0.000 H 
ATOM     16  C10 UNL A   1      12.230  52.227  11.413  1.00  0.00    +0.000 C 
BRANCH   16   15
ATOM     95  H9  UNL A   1      14.111  51.386  10.895  1.00  0.00    +0.000 H 
ATOM     94  H8  UNL A   1      12.921  51.346   9.598  1.00  0.00    +0.000 H 
ATOM     15  C9  UNL A   1      13.084  51.217  10.647  1.00  0.00    +0.000 C 
BRANCH   15   14
ATOM     93  H7  UNL A   1      12.307  49.700  11.881  1.00  0.00    +0.000 H 
ATOM     14  N2  UNL A   1      12.745  49.857  11.013  1.00  0.00    +0.000 N 
BRANCH   14    2
ATOM      1  O1  UNL A   1      12.230  48.359   9.347  1.00  0.00    +0.000 O 
ATOM      2  C1  UNL A   1      13.005  48.774  10.203  1.00  0.00    +0.000 C 
BRANCH    2    3
ATOM      3  C2  UNL A   1      14.343  48.096  10.478  1.00  0.00    +0.000 C 
ATOM     87  H1  UNL A   1      14.326  47.110  10.063  1.00  0.00    +0.000 H 
ATOM     88  H2  UNL A   1      14.491  48.055  11.537  1.00  0.00    +0.000 H 
BRANCH    3    4
ATOM      4  C3  UNL A   1      15.478  48.870   9.865  1.00  0.00    +0.000 C 
ATOM      5  C4  UNL A   1      16.474  49.453  10.742  1.00  0.00    +0.000 C 
ATOM      6  C5  UNL A   1      17.479  50.186  10.245  1.00  0.00    +0.000 C 
ATOM      7  C6  UNL A   1      17.602  50.405   8.778  1.00  0.00    +0.000 C 
ATOM      8  O2  UNL A   1      18.518  51.109   8.367  1.00  0.00    +0.000 O 
ATOM      9  N1  UNL A   1      16.645  49.774   7.997  1.00  0.00    +0.000 N 
ATOM     13  C8  UNL A   1      15.607  49.035   8.537  1.00  0.00    +0.000 C 
ATOM     89  H3  UNL A   1      16.410  49.299  11.760  1.00  0.00    +0.000 H 
ATOM     90  H4  UNL A   1      18.172  50.602  10.885  1.00  0.00    +0.000 H 
ATOM     92  H6  UNL A   1      14.915  48.600   7.906  1.00  0.00    +0.000 H 
BRANCH    9   10
ATOM     10  C7  UNL A   1      16.740  49.965   6.572  1.00  0.00    +0.000 C 
ATOM     11  F1  UNL A   1      15.960  49.075   5.912  1.00  0.00    +0.000 F 
ATOM     12  F2  UNL A   1      16.347  51.212   6.218  1.00  0.00    +0.000 F 
ATOM     91  H5  UNL A   1      17.767  49.821   6.307  1.00  0.00    +0.000 H 
ENDBRANCH    9   10
ENDBRANCH    3    4
ENDBRANCH    2    3
ENDBRANCH   14    2
ENDBRANCH   15   14
ENDBRANCH   16   15
ENDBRANCH   17   16
ENDBRANCH   18   17
ENDBRANCH   19   18
ENDBRANCH   20   19
ENDBRANCH   21   20
ENDBRANCH   22   21
ENDBRANCH   24   22
ENDBRANCH   28   27
BRANCH   32   33
ATOM     33  C24 UNL A   1      12.014  47.700   5.187  1.00  0.00    +0.000 C 
ATOM     34  C25 UNL A   1      10.734  47.398   4.697  1.00  0.00    +0.000 C 
ATOM     35  F3  UNL A   1      10.191  48.146   3.725  1.00  0.00    +0.000 F 
ATOM     36  C26 UNL A   1      10.000  46.337   5.221  1.00  0.00    +0.000 C 
ATOM     37  F4  UNL A   1       8.769  46.082   4.755  1.00  0.00    +0.000 F 
ATOM     38  C27 UNL A   1      10.539  45.545   6.224  1.00  0.00    +0.000 C 
ATOM     39  F5  UNL A   1       9.836  44.516   6.717  1.00  0.00    +0.000 F 
ATOM     40  C28 UNL A   1      11.804  45.822   6.719  1.00  0.00    +0.000 C 
ATOM     41  F6  UNL A   1      12.330  45.051   7.681  1.00  0.00    +0.000 F 
ATOM     42  C29 UNL A   1      12.532  46.896   6.213  1.00  0.00    +0.000 C 
ATOM     43  F7  UNL A   1      13.753  47.140   6.711  1.00  0.00    +0.000 F 
ENDBRANCH   32   33
BRANCH   49   50
ATOM     50  C35 UNL A   1      16.343  48.635  -0.480  1.00  0.00    +0.000 C 
ATOM     51  C36 UNL A   1      15.588  48.439  -1.646  1.00  0.00    +0.000 C 
ATOM     52  F8  UNL A   1      14.340  48.924  -1.731  1.00  0.00    +0.000 F 
ATOM     53  C37 UNL A   1      16.106  47.721  -2.719  1.00  0.00    +0.000 C 
ATOM     54  F9  UNL A   1      15.357  47.520  -3.813  1.00  0.00    +0.000 F 
ATOM     55  C38 UNL A   1      17.394  47.208  -2.658  1.00  0.00    +0.000 C 
ATOM     56  F10 UNL A   1      17.895  46.526  -3.697  1.00  0.00    +0.000 F 
ATOM     57  C39 UNL A   1      18.160  47.397  -1.518  1.00  0.00    +0.000 C 
ATOM     58  F11 UNL A   1      19.407  46.911  -1.461  1.00  0.00    +0.000 F 
ATOM     59  C40 UNL A   1      17.637  48.097  -0.433  1.00  0.00    +0.000 C 
ATOM     60  F12 UNL A   1      18.400  48.263   0.658  1.00  0.00    +0.000 F 
ENDBRANCH   49   50
BRANCH   64   65
ATOM     65  C44 UNL A   1      17.289  55.271   1.420  1.00  0.00    +0.000 C 
ATOM     66  C45 UNL A   1      16.693  56.098   0.459  1.00  0.00    +0.000 C 
ATOM     67  F13 UNL A   1      15.453  55.833   0.023  1.00  0.00    +0.000 F 
ATOM     68  C46 UNL A   1      17.379  57.186  -0.076  1.00  0.00    +0.000 C 
ATOM     69  F14 UNL A   1      16.798  57.948  -1.012  1.00  0.00    +0.000 F 
ATOM     70  C47 UNL A   1      18.664  57.480   0.357  1.00  0.00    +0.000 C 
ATOM     71  F15 UNL A   1      19.317  58.536  -0.145  1.00  0.00    +0.000 F 
ATOM     72  C48 UNL A   1      19.271  56.677   1.312  1.00  0.00    +0.000 C 
ATOM     73  F16 UNL A   1      20.507  56.965   1.742  1.00  0.00    +0.000 F 
ATOM     74  C49 UNL A   1      18.596  55.575   1.828  1.00  0.00    +0.000 C 
ATOM     75  F17 UNL A   1      19.206  54.812   2.747  1.00  0.00    +0.000 F 
ENDBRANCH   64   65
TORSDOF 17
ENDMDL
MODEL 8
REMARK VINA RESULT:     -10.2      4.105      9.160
ROOT
ATOM     28  C20 UNL A   1      41.356  26.324  27.935  1.00  0.00    +0.000 C 
ATOM     29  C21 UNL A   1      42.766  26.579  27.471  1.00  0.00    +0.000 C 
ATOM     30  N4  UNL A   1      43.525  27.628  27.674  1.00  0.00    +0.000 N 
ATOM     31  C22 UNL A   1      44.733  27.350  27.049  1.00  0.00    +0.000 C 
ATOM     32  C23 UNL A   1      45.832  28.135  26.946  1.00  0.00    +0.000 C 
ATOM     44  C30 UNL A   1      45.938  29.465  27.487  1.00  0.00    +0.000 C 
ATOM     45  C31 UNL A   1      47.007  30.342  27.413  1.00  0.00    +0.000 C 
ATOM     46  C32 UNL A   1      46.664  31.508  28.106  1.00  0.00    +0.000 C 
ATOM     47  C33 UNL A   1      45.370  31.370  28.580  1.00  0.00    +0.000 C 
ATOM     48  N5  UNL A   1      44.938  30.111  28.196  1.00  0.00    +0.000 N 
ATOM     49  C34 UNL A   1      44.585  32.315  29.332  1.00  0.00    +0.000 C 
ATOM     61  C41 UNL A   1      43.304  32.121  29.726  1.00  0.00    +0.000 C 
ATOM     62  N6  UNL A   1      42.488  31.018  29.520  1.00  0.00    +0.000 N 
ATOM     63  C42 UNL A   1      41.354  31.294  30.112  1.00  0.00    +0.000 C 
ATOM     64  C43 UNL A   1      40.108  30.460  30.209  1.00  0.00    +0.000 C 
ATOM     76  C50 UNL A   1      40.106  29.215  29.695  1.00  0.00    +0.000 C 
ATOM     77  C51 UNL A   1      38.973  28.295  29.724  1.00  0.00    +0.000 C 
ATOM     78  C52 UNL A   1      39.330  27.142  29.137  1.00  0.00    +0.000 C 
ATOM     79  C53 UNL A   1      40.703  27.263  28.646  1.00  0.00    +0.000 C 
ATOM     80  N7  UNL A   1      41.096  28.514  29.052  1.00  0.00    +0.000 N 
ATOM     81  C54 UNL A   1      41.321  32.611  30.766  1.00  0.00    +0.000 C 
ATOM     82  C55 UNL A   1      42.525  33.084  30.477  1.00  0.00    +0.000 C 
ATOM     83  C56 UNL A   1      44.620  26.025  26.479  1.00  0.00    +0.000 C 
ATOM     84  C57 UNL A   1      43.408  25.522  26.676  1.00  0.00    +0.000 C 
ATOM    109  H23 UNL A   1      47.902  30.166  26.931  1.00  0.00    +0.000 H 
ATOM    110  H24 UNL A   1      47.273  32.330  28.242  1.00  0.00    +0.000 H 
ATOM    111  H25 UNL A   1      44.052  29.731  28.397  1.00  0.00    +0.000 H 
ATOM    112  H26 UNL A   1      38.046  28.497  30.129  1.00  0.00    +0.000 H 
ATOM    113  H27 UNL A   1      38.734  26.305  29.047  1.00  0.00    +0.000 H 
ATOM    114  H28 UNL A   1      41.999  28.873  28.899  1.00  0.00    +0.000 H 
ATOM    115  H29 UNL A   1      40.560  33.051  31.308  1.00  0.00    +0.000 H 
ATOM    116  H30 UNL A   1      42.865  34.019  30.752  1.00  0.00    +0.000 H 
ATOM    117  H31 UNL A   1      45.382  25.536  25.986  1.00  0.00    +0.000 H 
ATOM    118  H32 UNL A   1      43.019  24.622  26.354  1.00  0.00    +0.000 H 
ENDROOT
BRANCH   28   27
ATOM     27  C19 UNL A   1      40.648  25.074  27.552  1.00  0.00    +0.000 C 
ATOM    107  H21 UNL A   1      38.064  24.040  25.668  1.00  0.00    +0.000 H 
ATOM    108  H22 UNL A   1      39.212  26.060  26.352  1.00  0.00    +0.000 H 
ATOM     85  C58 UNL A   1      41.074  23.820  28.018  1.00  0.00    +0.000 C 
ATOM     86  C59 UNL A   1      40.483  22.651  27.530  1.00  0.00    +0.000 C 
ATOM    120  H34 UNL A   1      40.819  21.729  27.849  1.00  0.00    +0.000 H 
ATOM     24  C16 UNL A   1      39.435  22.736  26.606  1.00  0.00    +0.000 C 
ATOM     25  C17 UNL A   1      38.915  23.980  26.248  1.00  0.00    +0.000 C 
ATOM     26  C18 UNL A   1      39.550  25.142  26.678  1.00  0.00    +0.000 C 
ATOM    119  H33 UNL A   1      41.824  23.762  28.723  1.00  0.00    +0.000 H 
BRANCH   24   22
ATOM     22  C15 UNL A   1      38.924  21.494  25.987  1.00  0.00    +0.000 C 
ATOM     23  O3  UNL A   1      39.668  20.526  25.852  1.00  0.00    +0.000 O 
BRANCH   22   21
ATOM    106  H20 UNL A   1      36.928  21.530  26.208  1.00  0.00    +0.000 H 
ATOM     21  N3  UNL A   1      37.629  21.448  25.522  1.00  0.00    +0.000 N 
BRANCH   21   20
ATOM    105  H19 UNL A   1      36.320  20.628  24.182  1.00  0.00    +0.000 H 
ATOM     20  C14 UNL A   1      37.154  21.297  24.155  1.00  0.00    +0.000 C 
ATOM    104  H18 UNL A   1      37.956  20.919  23.556  1.00  0.00    +0.000 H 
BRANCH   20   19
ATOM     19  C13 UNL A   1      36.664  22.603  23.537  1.00  0.00    +0.000 C 
ATOM    102  H16 UNL A   1      37.398  23.356  23.733  1.00  0.00    +0.000 H 
ATOM    103  H17 UNL A   1      36.521  22.401  22.497  1.00  0.00    +0.000 H 
BRANCH   19   18
ATOM     18  C12 UNL A   1      35.319  23.111  24.057  1.00  0.00    +0.000 C 
ATOM    100  H14 UNL A   1      34.730  23.406  23.214  1.00  0.00    +0.000 H 
ATOM    101  H15 UNL A   1      34.896  22.302  24.617  1.00  0.00    +0.000 H 
BRANCH   18   17
ATOM     17  C11 UNL A   1      35.388  24.297  25.022  1.00  0.00    +0.000 C 
ATOM     98  H12 UNL A   1      36.168  24.102  25.728  1.00  0.00    +0.000 H 
ATOM     99  H13 UNL A   1      35.560  25.159  24.412  1.00  0.00    +0.000 H 
BRANCH   17   16
ATOM     97  H11 UNL A   1      33.509  25.224  25.183  1.00  0.00    +0.000 H 
ATOM     96  H10 UNL A   1      34.382  25.052  26.736  1.00  0.00    +0.000 H 
ATOM     16  C10 UNL A   1      34.104  24.594  25.810  1.00  0.00    +0.000 C 
BRANCH   16   15
ATOM     95  H9  UNL A   1      33.147  23.292  27.189  1.00  0.00    +0.000 H 
ATOM     94  H8  UNL A   1      33.708  22.501  25.720  1.00  0.00    +0.000 H 
ATOM     15  C9  UNL A   1      33.241  23.373  26.127  1.00  0.00    +0.000 C 
BRANCH   15   14
ATOM     93  H7  UNL A   1      31.222  23.964  26.089  1.00  0.00    +0.000 H 
ATOM     14  N2  UNL A   1      31.915  23.506  25.560  1.00  0.00    +0.000 N 
BRANCH   14    2
ATOM      1  O1  UNL A   1      31.922  21.923  23.893  1.00  0.00    +0.000 O 
ATOM      2  C1  UNL A   1      31.579  23.023  24.315  1.00  0.00    +0.000 C 
BRANCH    2    3
ATOM      3  C2  UNL A   1      30.759  23.992  23.470  1.00  0.00    +0.000 C 
ATOM     87  H1  UNL A   1      29.874  24.262  24.007  1.00  0.00    +0.000 H 
ATOM     88  H2  UNL A   1      30.506  23.510  22.549  1.00  0.00    +0.000 H 
BRANCH    3    4
ATOM      4  C3  UNL A   1      31.547  25.236  23.159  1.00  0.00    +0.000 C 
ATOM      5  C4  UNL A   1      32.718  25.123  22.312  1.00  0.00    +0.000 C 
ATOM      6  C5  UNL A   1      33.475  26.195  22.043  1.00  0.00    +0.000 C 
ATOM      7  C6  UNL A   1      33.117  27.530  22.595  1.00  0.00    +0.000 C 
ATOM      8  O2  UNL A   1      33.854  28.479  22.350  1.00  0.00    +0.000 O 
ATOM      9  N1  UNL A   1      31.955  27.574  23.350  1.00  0.00    +0.000 N 
ATOM     13  C8  UNL A   1      31.200  26.447  23.628  1.00  0.00    +0.000 C 
ATOM     89  H3  UNL A   1      32.971  24.206  21.912  1.00  0.00    +0.000 H 
ATOM     90  H4  UNL A   1      34.311  26.093  21.448  1.00  0.00    +0.000 H 
ATOM     92  H6  UNL A   1      30.352  26.539  24.209  1.00  0.00    +0.000 H 
BRANCH    9   10
ATOM     10  C7  UNL A   1      31.582  28.854  23.895  1.00  0.00    +0.000 C 
ATOM     11  F1  UNL A   1      30.783  29.531  23.035  1.00  0.00    +0.000 F 
ATOM     12  F2  UNL A   1      30.914  28.712  25.066  1.00  0.00    +0.000 F 
ATOM     91  H5  UNL A   1      32.489  29.398  24.061  1.00  0.00    +0.000 H 
ENDBRANCH    9   10
ENDBRANCH    3    4
ENDBRANCH    2    3
ENDBRANCH   14    2
ENDBRANCH   15   14
ENDBRANCH   16   15
ENDBRANCH   17   16
ENDBRANCH   18   17
ENDBRANCH   19   18
ENDBRANCH   20   19
ENDBRANCH   21   20
ENDBRANCH   22   21
ENDBRANCH   24   22
ENDBRANCH   28   27
BRANCH   32   33
ATOM     33  C24 UNL A   1      47.021  27.582  26.219  1.00  0.00    +0.000 C 
ATOM     34  C25 UNL A   1      48.031  26.882  26.894  1.00  0.00    +0.000 C 
ATOM     35  F3  UNL A   1      47.989  26.758  28.229  1.00  0.00    +0.000 F 
ATOM     36  C26 UNL A   1      49.100  26.321  26.199  1.00  0.00    +0.000 C 
ATOM     37  F4  UNL A   1      50.068  25.678  26.867  1.00  0.00    +0.000 F 
ATOM     38  C27 UNL A   1      49.167  26.431  24.818  1.00  0.00    +0.000 C 
ATOM     39  F5  UNL A   1      50.190  25.878  24.150  1.00  0.00    +0.000 F 
ATOM     40  C28 UNL A   1      48.177  27.113  24.130  1.00  0.00    +0.000 C 
ATOM     41  F6  UNL A   1      48.234  27.210  22.795  1.00  0.00    +0.000 F 
ATOM     42  C29 UNL A   1      47.118  27.694  24.824  1.00  0.00    +0.000 C 
ATOM     43  F7  UNL A   1      46.174  28.349  24.131  1.00  0.00    +0.000 F 
ENDBRANCH   32   33
BRANCH   49   50
ATOM     50  C35 UNL A   1      45.231  33.615  29.702  1.00  0.00    +0.000 C 
ATOM     51  C36 UNL A   1      45.114  34.744  28.878  1.00  0.00    +0.000 C 
ATOM     52  F8  UNL A   1      44.478  34.657  27.700  1.00  0.00    +0.000 F 
ATOM     53  C37 UNL A   1      45.673  35.962  29.252  1.00  0.00    +0.000 C 
ATOM     54  F9  UNL A   1      45.575  37.022  28.437  1.00  0.00    +0.000 F 
ATOM     55  C38 UNL A   1      46.337  36.080  30.465  1.00  0.00    +0.000 C 
ATOM     56  F10 UNL A   1      46.865  37.257  30.829  1.00  0.00    +0.000 F 
ATOM     57  C39 UNL A   1      46.457  34.978  31.298  1.00  0.00    +0.000 C 
ATOM     58  F11 UNL A   1      47.089  35.094  32.474  1.00  0.00    +0.000 F 
ATOM     59  C40 UNL A   1      45.917  33.753  30.917  1.00  0.00    +0.000 C 
ATOM     60  F12 UNL A   1      46.050  32.702  31.741  1.00  0.00    +0.000 F 
ENDBRANCH   49   50
BRANCH   64   65
ATOM     65  C44 UNL A   1      38.882  30.988  30.856  1.00  0.00    +0.000 C 
ATOM     66  C45 UNL A   1      38.688  30.859  32.237  1.00  0.00    +0.000 C 
ATOM     67  F13 UNL A   1      39.592  30.207  32.983  1.00  0.00    +0.000 F 
ATOM     68  C46 UNL A   1      37.552  31.379  32.853  1.00  0.00    +0.000 C 
ATOM     69  F14 UNL A   1      37.376  31.223  34.172  1.00  0.00    +0.000 F 
ATOM     70  C47 UNL A   1      36.602  32.057  32.103  1.00  0.00    +0.000 C 
ATOM     71  F15 UNL A   1      35.517  32.570  32.699  1.00  0.00    +0.000 F 
ATOM     72  C48 UNL A   1      36.776  32.199  30.734  1.00  0.00    +0.000 C 
ATOM     73  F16 UNL A   1      35.866  32.864  30.008  1.00  0.00    +0.000 F 
ATOM     74  C49 UNL A   1      37.898  31.658  30.114  1.00  0.00    +0.000 C 
ATOM     75  F17 UNL A   1      38.042  31.806  28.789  1.00  0.00    +0.000 F 
ENDBRANCH   64   65
TORSDOF 17
ENDMDL
MODEL 9
REMARK VINA RESULT:     -10.2      4.308      9.573
ROOT
ATOM     28  C20 UNL A   1      41.417  26.418  27.945  1.00  0.00    +0.000 C 
ATOM     29  C21 UNL A   1      42.819  26.678  27.460  1.00  0.00    +0.000 C 
ATOM     30  N4  UNL A   1      43.575  27.732  27.642  1.00  0.00    +0.000 N 
ATOM     31  C22 UNL A   1      44.776  27.455  27.003  1.00  0.00    +0.000 C 
ATOM     32  C23 UNL A   1      45.868  28.246  26.878  1.00  0.00    +0.000 C 
ATOM     44  C30 UNL A   1      45.974  29.581  27.405  1.00  0.00    +0.000 C 
ATOM     45  C31 UNL A   1      47.037  30.465  27.308  1.00  0.00    +0.000 C 
ATOM     46  C32 UNL A   1      46.696  31.635  27.994  1.00  0.00    +0.000 C 
ATOM     47  C33 UNL A   1      45.410  31.494  28.487  1.00  0.00    +0.000 C 
ATOM     48  N5  UNL A   1      44.980  30.229  28.121  1.00  0.00    +0.000 N 
ATOM     49  C34 UNL A   1      44.630  32.441  29.241  1.00  0.00    +0.000 C 
ATOM     61  C41 UNL A   1      43.355  32.244  29.654  1.00  0.00    +0.000 C 
ATOM     62  N6  UNL A   1      42.544  31.134  29.470  1.00  0.00    +0.000 N 
ATOM     63  C42 UNL A   1      41.416  31.409  30.075  1.00  0.00    +0.000 C 
ATOM     64  C43 UNL A   1      40.177  30.568  30.197  1.00  0.00    +0.000 C 
ATOM     76  C50 UNL A   1      40.174  29.319  29.695  1.00  0.00    +0.000 C 
ATOM     77  C51 UNL A   1      39.047  28.392  29.748  1.00  0.00    +0.000 C 
ATOM     78  C52 UNL A   1      39.403  27.236  29.168  1.00  0.00    +0.000 C 
ATOM     79  C53 UNL A   1      40.769  27.361  28.656  1.00  0.00    +0.000 C 
ATOM     80  N7  UNL A   1      41.159  28.618  29.045  1.00  0.00    +0.000 N 
ATOM     81  C54 UNL A   1      41.384  32.732  30.717  1.00  0.00    +0.000 C 
ATOM     82  C55 UNL A   1      42.581  33.209  30.406  1.00  0.00    +0.000 C 
ATOM     83  C56 UNL A   1      44.662  26.125  26.448  1.00  0.00    +0.000 C 
ATOM     84  C57 UNL A   1      43.457  25.616  26.666  1.00  0.00    +0.000 C 
ATOM    109  H23 UNL A   1      47.926  30.289  26.815  1.00  0.00    +0.000 H 
ATOM    110  H24 UNL A   1      47.302  32.462  28.114  1.00  0.00    +0.000 H 
ATOM    111  H25 UNL A   1      44.099  29.846  28.338  1.00  0.00    +0.000 H 
ATOM    112  H26 UNL A   1      38.125  28.593  30.164  1.00  0.00    +0.000 H 
ATOM    113  H27 UNL A   1      38.811  26.395  29.094  1.00  0.00    +0.000 H 
ATOM    114  H28 UNL A   1      42.058  28.981  28.876  1.00  0.00    +0.000 H 
ATOM    115  H29 UNL A   1      40.628  33.172  31.265  1.00  0.00    +0.000 H 
ATOM    116  H30 UNL A   1      42.919  34.149  30.668  1.00  0.00    +0.000 H 
ATOM    117  H31 UNL A   1      45.421  25.635  25.948  1.00  0.00    +0.000 H 
ATOM    118  H32 UNL A   1      43.068  24.711  26.358  1.00  0.00    +0.000 H 
ENDROOT
BRANCH   28   27
ATOM     27  C19 UNL A   1      40.712  25.161  27.584  1.00  0.00    +0.000 C 
ATOM    107  H21 UNL A   1      38.185  24.078  25.650  1.00  0.00    +0.000 H 
ATOM    108  H22 UNL A   1      39.327  26.113  26.299  1.00  0.00    +0.000 H 
ATOM     85  C58 UNL A   1      41.109  23.922  28.111  1.00  0.00    +0.000 C 
ATOM     86  C59 UNL A   1      40.525  22.740  27.645  1.00  0.00    +0.000 C 
ATOM    120  H34 UNL A   1      40.841  21.828  28.010  1.00  0.00    +0.000 H 
ATOM     24  C16 UNL A   1      39.511  22.799  26.683  1.00  0.00    +0.000 C 
ATOM     25  C17 UNL A   1      39.015  24.033  26.262  1.00  0.00    +0.000 C 
ATOM     26  C18 UNL A   1      39.646  25.205  26.671  1.00  0.00    +0.000 C 
ATOM    119  H33 UNL A   1      41.835  23.884  28.844  1.00  0.00    +0.000 H 
BRANCH   24   22
ATOM     22  C15 UNL A   1      39.010  21.539  26.092  1.00  0.00    +0.000 C 
ATOM     23  O3  UNL A   1      39.783  20.605  25.896  1.00  0.00    +0.000 O 
BRANCH   22   21
ATOM    106  H20 UNL A   1      37.035  21.505  26.455  1.00  0.00    +0.000 H 
ATOM     21  N3  UNL A   1      37.688  21.439  25.721  1.00  0.00    +0.000 N 
BRANCH   21   20
ATOM    105  H19 UNL A   1      36.252  20.641  24.504  1.00  0.00    +0.000 H 
ATOM     20  C14 UNL A   1      37.123  21.251  24.394  1.00  0.00    +0.000 C 
ATOM    104  H18 UNL A   1      37.863  20.790  23.773  1.00  0.00    +0.000 H 
BRANCH   20   19
ATOM     19  C13 UNL A   1      36.681  22.553  23.735  1.00  0.00    +0.000 C 
ATOM    102  H16 UNL A   1      37.557  23.062  23.390  1.00  0.00    +0.000 H 
ATOM    103  H17 UNL A   1      36.008  22.274  22.952  1.00  0.00    +0.000 H 
BRANCH   19   18
ATOM     18  C12 UNL A   1      35.903  23.513  24.635  1.00  0.00    +0.000 C 
ATOM    100  H14 UNL A   1      35.361  22.930  25.349  1.00  0.00    +0.000 H 
ATOM    101  H15 UNL A   1      36.633  24.162  25.073  1.00  0.00    +0.000 H 
BRANCH   18   17
ATOM     17  C11 UNL A   1      34.905  24.428  23.920  1.00  0.00    +0.000 C 
ATOM     98  H12 UNL A   1      34.793  25.316  24.506  1.00  0.00    +0.000 H 
ATOM     99  H13 UNL A   1      35.314  24.600  22.946  1.00  0.00    +0.000 H 
BRANCH   17   16
ATOM     97  H11 UNL A   1      33.278  23.260  24.555  1.00  0.00    +0.000 H 
ATOM     96  H10 UNL A   1      33.535  23.264  22.784  1.00  0.00    +0.000 H 
ATOM     16  C10 UNL A   1      33.507  23.840  23.686  1.00  0.00    +0.000 C 
BRANCH   16   15
ATOM     95  H9  UNL A   1      31.638  24.471  22.898  1.00  0.00    +0.000 H 
ATOM     94  H8  UNL A   1      32.788  25.778  23.163  1.00  0.00    +0.000 H 
ATOM     15  C9  UNL A   1      32.384  24.868  23.554  1.00  0.00    +0.000 C 
BRANCH   15   14
ATOM     93  H7  UNL A   1      31.085  24.512  25.170  1.00  0.00    +0.000 H 
ATOM     14  N2  UNL A   1      31.767  25.139  24.836  1.00  0.00    +0.000 N 
BRANCH   14    2
ATOM      1  O1  UNL A   1      31.754  26.365  26.781  1.00  0.00    +0.000 O 
ATOM      2  C1  UNL A   1      32.091  26.232  25.609  1.00  0.00    +0.000 C 
BRANCH    2    3
ATOM      3  C2  UNL A   1      32.887  27.304  24.872  1.00  0.00    +0.000 C 
ATOM     87  H1  UNL A   1      32.352  27.592  23.991  1.00  0.00    +0.000 H 
ATOM     88  H2  UNL A   1      33.844  26.900  24.615  1.00  0.00    +0.000 H 
BRANCH    3    4
ATOM      4  C3  UNL A   1      33.096  28.515  25.740  1.00  0.00    +0.000 C 
ATOM      5  C4  UNL A   1      32.011  29.467  25.876  1.00  0.00    +0.000 C 
ATOM      6  C5  UNL A   1      32.165  30.581  26.603  1.00  0.00    +0.000 C 
ATOM      7  C6  UNL A   1      33.450  30.857  27.301  1.00  0.00    +0.000 C 
ATOM      8  O2  UNL A   1      33.559  31.903  27.931  1.00  0.00    +0.000 O 
ATOM      9  N1  UNL A   1      34.423  29.877  27.172  1.00  0.00    +0.000 N 
ATOM     13  C8  UNL A   1      34.244  28.742  26.400  1.00  0.00    +0.000 C 
ATOM     89  H3  UNL A   1      31.110  29.284  25.408  1.00  0.00    +0.000 H 
ATOM     90  H4  UNL A   1      31.386  31.253  26.679  1.00  0.00    +0.000 H 
ATOM     92  H6  UNL A   1      35.011  28.055  26.328  1.00  0.00    +0.000 H 
BRANCH    9   10
ATOM     10  C7  UNL A   1      35.677  30.115  27.840  1.00  0.00    +0.000 C 
ATOM     11  F1  UNL A   1      35.768  29.377  28.973  1.00  0.00    +0.000 F 
ATOM     12  F2  UNL A   1      36.725  29.793  27.043  1.00  0.00    +0.000 F 
ATOM     91  H5  UNL A   1      35.711  31.158  28.077  1.00  0.00    +0.000 H 
ENDBRANCH    9   10
ENDBRANCH    3    4
ENDBRANCH    2    3
ENDBRANCH   14    2
ENDBRANCH   15   14
ENDBRANCH   16   15
ENDBRANCH   17   16
ENDBRANCH   18   17
ENDBRANCH   19   18
ENDBRANCH   20   19
ENDBRANCH   21   20
ENDBRANCH   22   21
ENDBRANCH   24   22
ENDBRANCH   28   27
BRANCH   32   33
ATOM     33  C24 UNL A   1      47.051  27.693  26.139  1.00  0.00    +0.000 C 
ATOM     34  C25 UNL A   1      47.140  27.766  24.741  1.00  0.00    +0.000 C 
ATOM     35  F3  UNL A   1      46.123  28.269  24.026  1.00  0.00    +0.000 F 
ATOM     36  C26 UNL A   1      48.271  27.304  24.072  1.00  0.00    +0.000 C 
ATOM     37  F4  UNL A   1      48.325  27.360  22.734  1.00  0.00    +0.000 F 
ATOM     38  C27 UNL A   1      49.339  26.782  24.787  1.00  0.00    +0.000 C 
ATOM     39  F5  UNL A   1      50.431  26.351  24.141  1.00  0.00    +0.000 F 
ATOM     40  C28 UNL A   1      49.274  26.706  26.170  1.00  0.00    +0.000 C 
ATOM     41  F6  UNL A   1      50.309  26.212  26.862  1.00  0.00    +0.000 F 
ATOM     42  C29 UNL A   1      48.136  27.147  26.841  1.00  0.00    +0.000 C 
ATOM     43  F7  UNL A   1      48.101  27.061  28.179  1.00  0.00    +0.000 F 
ENDBRANCH   32   33
BRANCH   49   50
ATOM     50  C35 UNL A   1      45.273  33.749  29.589  1.00  0.00    +0.000 C 
ATOM     51  C36 UNL A   1      45.130  34.872  28.761  1.00  0.00    +0.000 C 
ATOM     52  F8  UNL A   1      44.470  34.772  27.597  1.00  0.00    +0.000 F 
ATOM     53  C37 UNL A   1      45.687  36.096  29.116  1.00  0.00    +0.000 C 
ATOM     54  F9  UNL A   1      45.564  37.150  28.298  1.00  0.00    +0.000 F 
ATOM     55  C38 UNL A   1      46.375  36.227  30.315  1.00  0.00    +0.000 C 
ATOM     56  F10 UNL A   1      46.902  37.410  30.660  1.00  0.00    +0.000 F 
ATOM     57  C39 UNL A   1      46.521  35.131  31.151  1.00  0.00    +0.000 C 
ATOM     58  F11 UNL A   1      47.177  35.259  32.313  1.00  0.00    +0.000 F 
ATOM     59  C40 UNL A   1      45.983  33.899  30.789  1.00  0.00    +0.000 C 
ATOM     60  F12 UNL A   1      46.141  32.855  31.617  1.00  0.00    +0.000 F 
ENDBRANCH   49   50
BRANCH   64   65
ATOM     65  C44 UNL A   1      38.956  31.095  30.856  1.00  0.00    +0.000 C 
ATOM     66  C45 UNL A   1      37.975  31.766  30.116  1.00  0.00    +0.000 C 
ATOM     67  F13 UNL A   1      38.156  31.985  28.805  1.00  0.00    +0.000 F 
ATOM     68  C46 UNL A   1      36.814  32.237  30.725  1.00  0.00    +0.000 C 
ATOM     69  F14 UNL A   1      35.900  32.898  30.001  1.00  0.00    +0.000 F 
ATOM     70  C47 UNL A   1      36.603  32.025  32.079  1.00  0.00    +0.000 C 
ATOM     71  F15 UNL A   1      35.479  32.464  32.661  1.00  0.00    +0.000 F 
ATOM     72  C48 UNL A   1      37.560  31.359  32.831  1.00  0.00    +0.000 C 
ATOM     73  F16 UNL A   1      37.355  31.141  34.137  1.00  0.00    +0.000 F 
ATOM     74  C49 UNL A   1      38.732  30.911  32.228  1.00  0.00    +0.000 C 
ATOM     75  F17 UNL A   1      39.644  30.273  32.977  1.00  0.00    +0.000 F 
ENDBRANCH   64   65
TORSDOF 17
ENDMDL
MODEL 10
REMARK VINA RESULT:     -10.1     37.366     43.862
ROOT
ATOM     28  C20 UNL A   1      14.433  49.905   4.448  1.00  0.00    +0.000 C 
ATOM     29  C21 UNL A   1      14.985  49.519   3.101  1.00  0.00    +0.000 C 
ATOM     30  N4  UNL A   1      15.536  50.278   2.185  1.00  0.00    +0.000 N 
ATOM     31  C22 UNL A   1      15.884  49.427   1.145  1.00  0.00    +0.000 C 
ATOM     32  C23 UNL A   1      16.453  49.736  -0.045  1.00  0.00    +0.000 C 
ATOM     44  C30 UNL A   1      16.802  51.069  -0.461  1.00  0.00    +0.000 C 
ATOM     45  C31 UNL A   1      17.364  51.479  -1.659  1.00  0.00    +0.000 C 
ATOM     46  C32 UNL A   1      17.548  52.864  -1.604  1.00  0.00    +0.000 C 
ATOM     47  C33 UNL A   1      17.069  53.321  -0.388  1.00  0.00    +0.000 C 
ATOM     48  N5  UNL A   1      16.617  52.209   0.305  1.00  0.00    +0.000 N 
ATOM     49  C34 UNL A   1      17.029  54.672   0.111  1.00  0.00    +0.000 C 
ATOM     61  C41 UNL A   1      16.503  55.046   1.301  1.00  0.00    +0.000 C 
ATOM     62  N6  UNL A   1      15.919  54.255   2.280  1.00  0.00    +0.000 N 
ATOM     63  C42 UNL A   1      15.594  55.069   3.253  1.00  0.00    +0.000 C 
ATOM     64  C43 UNL A   1      14.929  54.760   4.564  1.00  0.00    +0.000 C 
ATOM     76  C50 UNL A   1      14.660  53.480   4.883  1.00  0.00    +0.000 C 
ATOM     77  C51 UNL A   1      14.027  53.035   6.121  1.00  0.00    +0.000 C 
ATOM     78  C52 UNL A   1      13.930  51.697   6.107  1.00  0.00    +0.000 C 
ATOM     79  C53 UNL A   1      14.450  51.195   4.835  1.00  0.00    +0.000 C 
ATOM     80  N7  UNL A   1      14.893  52.320   4.186  1.00  0.00    +0.000 N 
ATOM     81  C54 UNL A   1      15.938  56.477   3.001  1.00  0.00    +0.000 C 
ATOM     82  C55 UNL A   1      16.465  56.410   1.786  1.00  0.00    +0.000 C 
ATOM     83  C56 UNL A   1      15.509  48.090   1.548  1.00  0.00    +0.000 C 
ATOM     84  C57 UNL A   1      14.910  48.097   2.731  1.00  0.00    +0.000 C 
ATOM    109  H23 UNL A   1      17.605  50.868  -2.454  1.00  0.00    +0.000 H 
ATOM    110  H24 UNL A   1      17.971  53.447  -2.344  1.00  0.00    +0.000 H 
ATOM    111  H25 UNL A   1      16.224  52.226   1.207  1.00  0.00    +0.000 H 
ATOM    112  H26 UNL A   1      13.704  53.650   6.884  1.00  0.00    +0.000 H 
ATOM    113  H27 UNL A   1      13.552  51.115   6.871  1.00  0.00    +0.000 H 
ATOM    114  H28 UNL A   1      15.336  52.298   3.307  1.00  0.00    +0.000 H 
ATOM    115  H29 UNL A   1      15.804  57.299   3.609  1.00  0.00    +0.000 H 
ATOM    116  H30 UNL A   1      16.805  57.226   1.254  1.00  0.00    +0.000 H 
ATOM    117  H31 UNL A   1      15.684  47.241   0.988  1.00  0.00    +0.000 H 
ATOM    118  H32 UNL A   1      14.499  47.309   3.256  1.00  0.00    +0.000 H 
ENDROOT
BRANCH   28   27
ATOM     27  C19 UNL A   1      13.801  48.886   5.326  1.00  0.00    +0.000 C 
ATOM    107  H21 UNL A   1      10.820  47.430   5.867  1.00  0.00    +0.000 H 
ATOM    108  H22 UNL A   1      11.874  49.119   4.486  1.00  0.00    +0.000 H 
ATOM     85  C58 UNL A   1      14.546  48.186   6.289  1.00  0.00    +0.000 C 
ATOM     86  C59 UNL A   1      13.962  47.134   7.000  1.00  0.00    +0.000 C 
ATOM    120  H34 UNL A   1      14.520  46.600   7.684  1.00  0.00    +0.000 H 
ATOM     24  C16 UNL A   1      12.619  46.808   6.782  1.00  0.00    +0.000 C 
ATOM     25  C17 UNL A   1      11.837  47.591   5.931  1.00  0.00    +0.000 C 
ATOM     26  C18 UNL A   1      12.437  48.591   5.170  1.00  0.00    +0.000 C 
ATOM    119  H33 UNL A   1      15.527  48.450   6.471  1.00  0.00    +0.000 H 
BRANCH   24   22
ATOM     22  C15 UNL A   1      12.060  45.601   7.429  1.00  0.00    +0.000 C 
ATOM     23  O3  UNL A   1      11.823  44.601   6.756  1.00  0.00    +0.000 O 
BRANCH   22   21
ATOM    106  H20 UNL A   1      12.375  45.114   9.351  1.00  0.00    +0.000 H 
ATOM     21  N3  UNL A   1      11.764  45.625   8.773  1.00  0.00    +0.000 N 
BRANCH   21   20
ATOM    105  H19 UNL A   1      10.346  45.658  10.245  1.00  0.00    +0.000 H 
ATOM     20  C14 UNL A   1      10.673  46.302   9.457  1.00  0.00    +0.000 C 
ATOM    104  H18 UNL A   1       9.897  46.497   8.746  1.00  0.00    +0.000 H 
BRANCH   20   19
ATOM     19  C13 UNL A   1      11.087  47.622  10.096  1.00  0.00    +0.000 C 
ATOM    102  H16 UNL A   1      10.892  48.405   9.393  1.00  0.00    +0.000 H 
ATOM    103  H17 UNL A   1      10.521  47.703  11.000  1.00  0.00    +0.000 H 
BRANCH   19   18
ATOM     18  C12 UNL A   1      12.556  47.719  10.511  1.00  0.00    +0.000 C 
ATOM    100  H14 UNL A   1      12.665  47.225  11.453  1.00  0.00    +0.000 H 
ATOM    101  H15 UNL A   1      13.115  47.266   9.718  1.00  0.00    +0.000 H 
BRANCH   18   17
ATOM     17  C11 UNL A   1      13.110  49.139  10.655  1.00  0.00    +0.000 C 
ATOM     98  H12 UNL A   1      14.177  49.075  10.685  1.00  0.00    +0.000 H 
ATOM     99  H13 UNL A   1      12.730  49.686   9.818  1.00  0.00    +0.000 H 
BRANCH   17   16
ATOM     97  H11 UNL A   1      13.510  50.441  12.257  1.00  0.00    +0.000 H 
ATOM     96  H10 UNL A   1      12.261  49.207  12.604  1.00  0.00    +0.000 H 
ATOM     16  C10 UNL A   1      12.650  49.912  11.900  1.00  0.00    +0.000 C 
BRANCH   16   15
ATOM     95  H9  UNL A   1      11.469  51.561  12.532  1.00  0.00    +0.000 H 
ATOM     94  H8  UNL A   1      10.657  50.482  11.404  1.00  0.00    +0.000 H 
ATOM     15  C9  UNL A   1      11.577  50.970  11.647  1.00  0.00    +0.000 C 
BRANCH   15   14
ATOM     93  H7  UNL A   1      11.780  51.544   9.633  1.00  0.00    +0.000 H 
ATOM     14  N2  UNL A   1      11.949  51.845  10.555  1.00  0.00    +0.000 N 
BRANCH   14    2
ATOM      1  O1  UNL A   1      12.081  53.934  11.507  1.00  0.00    +0.000 O 
ATOM      2  C1  UNL A   1      12.528  53.081  10.748  1.00  0.00    +0.000 C 
BRANCH    2    3
ATOM      3  C2  UNL A   1      13.773  53.325   9.902  1.00  0.00    +0.000 C 
ATOM     87  H1  UNL A   1      14.109  54.329  10.057  1.00  0.00    +0.000 H 
ATOM     88  H2  UNL A   1      13.521  53.168   8.873  1.00  0.00    +0.000 H 
BRANCH    3    4
ATOM      4  C3  UNL A   1      14.876  52.372  10.276  1.00  0.00    +0.000 C 
ATOM      5  C4  UNL A   1      15.306  52.319  11.659  1.00  0.00    +0.000 C 
ATOM      6  C5  UNL A   1      16.313  51.518  12.032  1.00  0.00    +0.000 C 
ATOM      7  C6  UNL A   1      17.000  50.653  11.035  1.00  0.00    +0.000 C 
ATOM      8  O2  UNL A   1      17.938  49.958  11.412  1.00  0.00    +0.000 O 
ATOM      9  N1  UNL A   1      16.500  50.716   9.743  1.00  0.00    +0.000 N 
ATOM     13  C8  UNL A   1      15.469  51.565   9.380  1.00  0.00    +0.000 C 
ATOM     89  H3  UNL A   1      14.831  52.903  12.365  1.00  0.00    +0.000 H 
ATOM     90  H4  UNL A   1      16.614  51.501  13.019  1.00  0.00    +0.000 H 
ATOM     92  H6  UNL A   1      15.149  51.580   8.399  1.00  0.00    +0.000 H 
BRANCH    9   10
ATOM     10  C7  UNL A   1      17.144  49.887   8.756  1.00  0.00    +0.000 C 
ATOM     11  F1  UNL A   1      16.709  48.606   8.843  1.00  0.00    +0.000 F 
ATOM     12  F2  UNL A   1      16.890  50.333   7.502  1.00  0.00    +0.000 F 
ATOM     91  H5  UNL A   1      18.196  49.932   8.949  1.00  0.00    +0.000 H 
ENDBRANCH    9   10
ENDBRANCH    3    4
ENDBRANCH    2    3
ENDBRANCH   14    2
ENDBRANCH   15   14
ENDBRANCH   16   15
ENDBRANCH   17   16
ENDBRANCH   18   17
ENDBRANCH   19   18
ENDBRANCH   20   19
ENDBRANCH   21   20
ENDBRANCH   22   21
ENDBRANCH   24   22
ENDBRANCH   28   27
BRANCH   32   33
ATOM     33  C24 UNL A   1      16.739  48.612  -0.996  1.00  0.00    +0.000 C 
ATOM     34  C25 UNL A   1      15.876  48.318  -2.062  1.00  0.00    +0.000 C 
ATOM     35  F3  UNL A   1      14.727  48.995  -2.206  1.00  0.00    +0.000 F 
ATOM     36  C26 UNL A   1      16.184  47.312  -2.974  1.00  0.00    +0.000 C 
ATOM     37  F4  UNL A   1      15.333  47.030  -3.971  1.00  0.00    +0.000 F 
ATOM     38  C27 UNL A   1      17.367  46.598  -2.852  1.00  0.00    +0.000 C 
ATOM     39  F5  UNL A   1      17.667  45.639  -3.739  1.00  0.00    +0.000 F 
ATOM     40  C28 UNL A   1      18.237  46.876  -1.809  1.00  0.00    +0.000 C 
ATOM     41  F6  UNL A   1      19.385  46.195  -1.696  1.00  0.00    +0.000 F 
ATOM     42  C29 UNL A   1      17.922  47.867  -0.883  1.00  0.00    +0.000 C 
ATOM     43  F7  UNL A   1      18.783  48.115   0.116  1.00  0.00    +0.000 F 
ENDBRANCH   32   33
BRANCH   49   50
ATOM     50  C35 UNL A   1      17.606  55.749  -0.757  1.00  0.00    +0.000 C 
ATOM     51  C36 UNL A   1      18.969  56.075  -0.700  1.00  0.00    +0.000 C 
ATOM     52  F8  UNL A   1      19.771  55.472   0.192  1.00  0.00    +0.000 F 
ATOM     53  C37 UNL A   1      19.508  57.041  -1.544  1.00  0.00    +0.000 C 
ATOM     54  F9  UNL A   1      20.807  57.359  -1.455  1.00  0.00    +0.000 F 
ATOM     55  C38 UNL A   1      18.701  57.679  -2.476  1.00  0.00    +0.000 C 
ATOM     56  F10 UNL A   1      19.224  58.602  -3.295  1.00  0.00    +0.000 F 
ATOM     57  C39 UNL A   1      17.353  57.366  -2.553  1.00  0.00    +0.000 C 
ATOM     58  F11 UNL A   1      16.575  57.976  -3.459  1.00  0.00    +0.000 F 
ATOM     59  C40 UNL A   1      16.806  56.416  -1.696  1.00  0.00    +0.000 C 
ATOM     60  F12 UNL A   1      15.498  56.134  -1.791  1.00  0.00    +0.000 F 
ENDBRANCH   49   50
BRANCH   64   65
ATOM     65  C44 UNL A   1      14.561  55.843   5.509  1.00  0.00    +0.000 C 
ATOM     66  C45 UNL A   1      15.541  56.498   6.265  1.00  0.00    +0.000 C 
ATOM     67  F13 UNL A   1      16.823  56.114   6.179  1.00  0.00    +0.000 F 
ATOM     68  C46 UNL A   1      15.203  57.535   7.132  1.00  0.00    +0.000 C 
ATOM     69  F14 UNL A   1      16.155  58.132   7.864  1.00  0.00    +0.000 F 
ATOM     70  C47 UNL A   1      13.884  57.950   7.241  1.00  0.00    +0.000 C 
ATOM     71  F15 UNL A   1      13.563  58.958   8.063  1.00  0.00    +0.000 F 
ATOM     72  C48 UNL A   1      12.898  57.318   6.498  1.00  0.00    +0.000 C 
ATOM     73  F16 UNL A   1      11.625  57.723   6.591  1.00  0.00    +0.000 F 
ATOM     74  C49 UNL A   1      13.231  56.264   5.651  1.00  0.00    +0.000 C 
ATOM     75  F17 UNL A   1      12.259  55.667   4.946  1.00  0.00    +0.000 F 
ENDBRANCH   64   65
TORSDOF 17
ENDMDL
