MODEL 1
REMARK VINA RESULT:     -10.8      0.000      0.000
ROOT
ATOM     19  C15 UNL A   1      38.168  30.176  29.817  1.00  0.00    +0.000 C 
ATOM     20  C16 UNL A   1      39.206  29.244  29.261  1.00  0.00    +0.000 C 
ATOM     21  N3  UNL A   1      40.279  28.761  29.833  1.00  0.00    +0.000 N 
ATOM     22  C17 UNL A   1      40.844  27.899  28.903  1.00  0.00    +0.000 C 
ATOM     23  C18 UNL A   1      41.992  27.187  29.000  1.00  0.00    +0.000 C 
ATOM     35  C25 UNL A   1      42.873  27.226  30.136  1.00  0.00    +0.000 C 
ATOM     36  C26 UNL A   1      44.090  26.590  30.308  1.00  0.00    +0.000 C 
ATOM     37  C27 UNL A   1      44.570  26.902  31.585  1.00  0.00    +0.000 C 
ATOM     38  C28 UNL A   1      43.671  27.765  32.192  1.00  0.00    +0.000 C 
ATOM     39  N4  UNL A   1      42.632  27.950  31.295  1.00  0.00    +0.000 N 
ATOM     40  C29 UNL A   1      43.755  28.377  33.493  1.00  0.00    +0.000 C 
ATOM     52  C36 UNL A   1      42.826  29.207  34.026  1.00  0.00    +0.000 C 
ATOM     53  N5  UNL A   1      41.639  29.660  33.467  1.00  0.00    +0.000 N 
ATOM     54  C37 UNL A   1      41.092  30.440  34.367  1.00  0.00    +0.000 C 
ATOM     55  C38 UNL A   1      39.809  31.222  34.289  1.00  0.00    +0.000 C 
ATOM     67  C45 UNL A   1      39.095  31.208  33.147  1.00  0.00    +0.000 C 
ATOM     68  C46 UNL A   1      37.832  31.907  32.927  1.00  0.00    +0.000 C 
ATOM     69  C47 UNL A   1      37.368  31.598  31.705  1.00  0.00    +0.000 C 
ATOM     70  C48 UNL A   1      38.322  30.709  31.042  1.00  0.00    +0.000 C 
ATOM     71  N6  UNL A   1      39.331  30.558  31.960  1.00  0.00    +0.000 N 
ATOM     72  C49 UNL A   1      41.858  30.546  35.617  1.00  0.00    +0.000 C 
ATOM     73  C50 UNL A   1      42.922  29.801  35.344  1.00  0.00    +0.000 C 
ATOM     74  C51 UNL A   1      39.975  27.896  27.745  1.00  0.00    +0.000 C 
ATOM     75  C52 UNL A   1      38.988  28.766  27.887  1.00  0.00    +0.000 C 
ATOM    111  H21 UNL A   1      44.563  25.989  29.615  1.00  0.00    +0.000 H 
ATOM    112  H22 UNL A   1      45.443  26.548  32.004  1.00  0.00    +0.000 H 
ATOM    113  H23 UNL A   1      41.839  28.511  31.456  1.00  0.00    +0.000 H 
ATOM    114  H24 UNL A   1      37.370  32.536  33.602  1.00  0.00    +0.000 H 
ATOM    115  H25 UNL A   1      36.481  31.935  31.299  1.00  0.00    +0.000 H 
ATOM    116  H26 UNL A   1      40.147  30.035  31.784  1.00  0.00    +0.000 H 
ATOM    117  H27 UNL A   1      41.629  31.063  36.480  1.00  0.00    +0.000 H 
ATOM    118  H28 UNL A   1      43.715  29.662  35.988  1.00  0.00    +0.000 H 
ATOM    119  H29 UNL A   1      40.107  27.292  26.918  1.00  0.00    +0.000 H 
ATOM    120  H30 UNL A   1      38.257  29.038  27.211  1.00  0.00    +0.000 H 
ENDROOT
BRANCH   19   18
ATOM     76  C53 UNL A   1      36.016  29.372  28.862  1.00  0.00    +0.000 C 
ATOM    109  H19 UNL A   1      35.251  32.816  27.374  1.00  0.00    +0.000 H 
ATOM     77  C54 UNL A   1      34.861  29.562  28.110  1.00  0.00    +0.000 C 
ATOM     15  C11 UNL A   1      34.557  30.835  27.617  1.00  0.00    +0.000 C 
ATOM     16  C12 UNL A   1      35.461  31.888  27.775  1.00  0.00    +0.000 C 
ATOM     17  C13 UNL A   1      36.651  31.681  28.476  1.00  0.00    +0.000 C 
ATOM    110  H20 UNL A   1      37.331  32.450  28.575  1.00  0.00    +0.000 H 
ATOM     18  C14 UNL A   1      36.924  30.427  29.047  1.00  0.00    +0.000 C 
ATOM    121  H31 UNL A   1      36.207  28.451  29.285  1.00  0.00    +0.000 H 
ATOM    122  H32 UNL A   1      34.231  28.768  27.917  1.00  0.00    +0.000 H 
BRANCH   15   13
ATOM     13  C10 UNL A   1      33.276  31.084  26.924  1.00  0.00    +0.000 C 
ATOM     14  O2  UNL A   1      32.567  32.025  27.268  1.00  0.00    +0.000 O 
BRANCH   13   12
ATOM    108  H18 UNL A   1      33.369  30.341  25.062  1.00  0.00    +0.000 H 
ATOM     12  N2  UNL A   1      32.880  30.245  25.911  1.00  0.00    +0.000 N 
BRANCH   12   11
ATOM    106  H16 UNL A   1      31.092  29.520  26.642  1.00  0.00    +0.000 H 
ATOM     11  C9  UNL A   1      31.835  29.234  25.927  1.00  0.00    +0.000 C 
ATOM    107  H17 UNL A   1      31.426  29.172  24.940  1.00  0.00    +0.000 H 
BRANCH   11   10
ATOM    105  H15 UNL A   1      31.600  27.156  26.046  1.00  0.00    +0.000 H 
ATOM     10  C8  UNL A   1      32.369  27.856  26.298  1.00  0.00    +0.000 C 
ATOM    104  H14 UNL A   1      32.608  27.861  27.341  1.00  0.00    +0.000 H 
BRANCH   10    9
ATOM      9  C7  UNL A   1      33.617  27.423  25.527  1.00  0.00    +0.000 C 
ATOM    102  H12 UNL A   1      34.092  28.302  25.145  1.00  0.00    +0.000 H 
ATOM    103  H13 UNL A   1      34.223  26.879  26.220  1.00  0.00    +0.000 H 
BRANCH    9    8
ATOM    100  H10 UNL A   1      32.344  26.135  24.422  1.00  0.00    +0.000 H 
ATOM    101  H11 UNL A   1      33.558  27.042  23.467  1.00  0.00    +0.000 H 
ATOM      8  C6  UNL A   1      33.356  26.476  24.353  1.00  0.00    +0.000 C 
BRANCH    8    7
ATOM     98  H8  UNL A   1      33.759  24.481  23.734  1.00  0.00    +0.000 H 
ATOM     99  H9  UNL A   1      35.177  25.564  23.820  1.00  0.00    +0.000 H 
ATOM      7  C5  UNL A   1      34.268  25.243  24.286  1.00  0.00    +0.000 C 
BRANCH    7    6
ATOM     97  H7  UNL A   1      34.099  25.168  26.411  1.00  0.00    +0.000 H 
ATOM      6  C4  UNL A   1      34.660  24.665  25.651  1.00  0.00    +0.000 C 
ATOM     96  H6  UNL A   1      35.709  24.811  25.806  1.00  0.00    +0.000 H 
BRANCH    6    5
ATOM      5  N1  UNL A   1      34.362  23.247  25.715  1.00  0.00    +0.000 N 
ATOM     95  H5  UNL A   1      34.940  22.655  25.181  1.00  0.00    +0.000 H 
BRANCH    5    3
ATOM      3  C3  UNL A   1      33.370  22.636  26.433  1.00  0.00    +0.000 C 
ATOM      4  O1  UNL A   1      33.600  22.413  27.623  1.00  0.00    +0.000 O 
BRANCH    3    2
ATOM      2  C2  UNL A   1      32.061  22.228  25.727  1.00  0.00    +0.000 C 
ATOM     94  H4  UNL A   1      31.421  21.762  26.446  1.00  0.00    +0.000 H 
BRANCH    2    1
ATOM      1  C1  UNL A   1      32.398  21.226  24.615  1.00  0.00    +0.000 C 
ATOM     91  H1  UNL A   1      31.499  20.933  24.114  1.00  0.00    +0.000 H 
ATOM     92  H2  UNL A   1      32.864  20.363  25.042  1.00  0.00    +0.000 H 
ATOM     93  H3  UNL A   1      33.064  21.681  23.913  1.00  0.00    +0.000 H 
ENDBRANCH    2    1
BRANCH    2   78
ATOM    129  H39 UNL A   1      31.414  22.953  23.167  1.00  0.00    +0.000 H 
ATOM     78  C55 UNL A   1      31.236  23.422  25.217  1.00  0.00    +0.000 C 
ATOM     79  C56 UNL A   1      30.738  24.399  26.095  1.00  0.00    +0.000 C 
ATOM     80  C57 UNL A   1      29.945  25.456  25.633  1.00  0.00    +0.000 C 
ATOM     81  C58 UNL A   1      29.644  25.580  24.274  1.00  0.00    +0.000 C 
ATOM     89  C64 UNL A   1      30.202  24.664  23.378  1.00  0.00    +0.000 C 
ATOM     90  C65 UNL A   1      30.996  23.609  23.846  1.00  0.00    +0.000 C 
ATOM    123  H33 UNL A   1      30.959  24.336  27.102  1.00  0.00    +0.000 H 
ATOM    124  H34 UNL A   1      29.580  26.151  26.303  1.00  0.00    +0.000 H 
ATOM    128  H38 UNL A   1      30.027  24.765  22.366  1.00  0.00    +0.000 H 
BRANCH   81   82
ATOM     82  C59 UNL A   1      28.777  26.722  23.836  1.00  0.00    +0.000 C 
ATOM     83  O3  UNL A   1      27.574  26.660  24.086  1.00  0.00    +0.000 O 
BRANCH   82   84
ATOM     84  C60 UNL A   1      29.379  27.852  23.153  1.00  0.00    +0.000 C 
ATOM     85  C61 UNL A   1      30.690  28.053  22.761  1.00  0.00    +0.000 C 
ATOM     86  C62 UNL A   1      30.876  29.322  22.136  1.00  0.00    +0.000 C 
ATOM     87  C63 UNL A   1      29.701  30.035  22.057  1.00  0.00    +0.000 C 
ATOM     88  S1  UNL A   1      28.379  29.169  22.710  1.00  0.00    +0.000 S 
ATOM    125  H35 UNL A   1      31.445  27.365  22.906  1.00  0.00    +0.000 H 
ATOM    126  H36 UNL A   1      31.784  29.664  21.785  1.00  0.00    +0.000 H 
ATOM    127  H37 UNL A   1      29.627  30.981  21.652  1.00  0.00    +0.000 H 
ENDBRANCH   82   84
ENDBRANCH   81   82
ENDBRANCH    2   78
ENDBRANCH    3    2
ENDBRANCH    5    3
ENDBRANCH    6    5
ENDBRANCH    7    6
ENDBRANCH    8    7
ENDBRANCH    9    8
ENDBRANCH   10    9
ENDBRANCH   11   10
ENDBRANCH   12   11
ENDBRANCH   13   12
ENDBRANCH   15   13
ENDBRANCH   19   18
BRANCH   23   24
ATOM     33  C24 UNL A   1      41.775  25.030  27.716  1.00  0.00    +0.000 C 
ATOM     34  F5  UNL A   1      40.890  24.594  28.626  1.00  0.00    +0.000 F 
ATOM     24  C19 UNL A   1      42.353  26.301  27.843  1.00  0.00    +0.000 C 
ATOM     25  C20 UNL A   1      43.277  26.703  26.866  1.00  0.00    +0.000 C 
ATOM     26  F1  UNL A   1      43.847  27.916  26.936  1.00  0.00    +0.000 F 
ATOM     27  C21 UNL A   1      43.579  25.881  25.785  1.00  0.00    +0.000 C 
ATOM     28  F2  UNL A   1      44.421  26.310  24.835  1.00  0.00    +0.000 F 
ATOM     29  C22 UNL A   1      42.997  24.627  25.681  1.00  0.00    +0.000 C 
ATOM     30  F3  UNL A   1      43.289  23.835  24.639  1.00  0.00    +0.000 F 
ATOM     31  C23 UNL A   1      42.103  24.197  26.650  1.00  0.00    +0.000 C 
ATOM     32  F4  UNL A   1      41.547  22.981  26.555  1.00  0.00    +0.000 F 
ENDBRANCH   23   24
BRANCH   40   41
ATOM     41  C30 UNL A   1      44.978  28.094  34.313  1.00  0.00    +0.000 C 
ATOM     42  C31 UNL A   1      46.105  28.926  34.264  1.00  0.00    +0.000 C 
ATOM     43  F6  UNL A   1      46.139  29.968  33.417  1.00  0.00    +0.000 F 
ATOM     44  C32 UNL A   1      47.214  28.674  35.066  1.00  0.00    +0.000 C 
ATOM     45  F7  UNL A   1      48.295  29.462  34.981  1.00  0.00    +0.000 F 
ATOM     46  C33 UNL A   1      47.207  27.604  35.949  1.00  0.00    +0.000 C 
ATOM     47  F8  UNL A   1      48.271  27.369  36.729  1.00  0.00    +0.000 F 
ATOM     48  C34 UNL A   1      46.099  26.773  36.020  1.00  0.00    +0.000 C 
ATOM     49  F9  UNL A   1      46.085  25.746  36.880  1.00  0.00    +0.000 F 
ATOM     50  C35 UNL A   1      44.997  27.009  35.202  1.00  0.00    +0.000 C 
ATOM     51  F10 UNL A   1      43.941  26.187  35.288  1.00  0.00    +0.000 F 
ENDBRANCH   40   41
BRANCH   55   56
ATOM     65  C44 UNL A   1      38.472  31.504  36.404  1.00  0.00    +0.000 C 
ATOM     66  F15 UNL A   1      38.064  30.230  36.312  1.00  0.00    +0.000 F 
ATOM     56  C39 UNL A   1      39.338  32.035  35.439  1.00  0.00    +0.000 C 
ATOM     57  C40 UNL A   1      39.730  33.374  35.576  1.00  0.00    +0.000 C 
ATOM     58  F11 UNL A   1      40.571  33.919  34.686  1.00  0.00    +0.000 F 
ATOM     59  C41 UNL A   1      39.283  34.148  36.644  1.00  0.00    +0.000 C 
ATOM     60  F12 UNL A   1      39.697  35.416  36.769  1.00  0.00    +0.000 F 
ATOM     61  C42 UNL A   1      38.417  33.606  37.581  1.00  0.00    +0.000 C 
ATOM     62  F13 UNL A   1      37.978  34.353  38.603  1.00  0.00    +0.000 F 
ATOM     63  C43 UNL A   1      38.007  32.286  37.461  1.00  0.00    +0.000 C 
ATOM     64  F14 UNL A   1      37.160  31.763  38.357  1.00  0.00    +0.000 F 
ENDBRANCH   55   56
TORSDOF 19
ENDMDL
MODEL 2
REMARK VINA RESULT:     -10.2      1.156      2.528
ROOT
ATOM     19  C15 UNL A   1      38.279  30.149  29.919  1.00  0.00    +0.000 C 
ATOM     20  C16 UNL A   1      39.308  29.217  29.346  1.00  0.00    +0.000 C 
ATOM     21  N3  UNL A   1      40.403  28.752  29.892  1.00  0.00    +0.000 N 
ATOM     22  C17 UNL A   1      40.946  27.879  28.959  1.00  0.00    +0.000 C 
ATOM     23  C18 UNL A   1      42.103  27.179  29.033  1.00  0.00    +0.000 C 
ATOM     35  C25 UNL A   1      43.018  27.244  30.140  1.00  0.00    +0.000 C 
ATOM     36  C26 UNL A   1      44.245  26.621  30.284  1.00  0.00    +0.000 C 
ATOM     37  C27 UNL A   1      44.761  26.958  31.540  1.00  0.00    +0.000 C 
ATOM     38  C28 UNL A   1      43.875  27.823  32.161  1.00  0.00    +0.000 C 
ATOM     39  N4  UNL A   1      42.807  27.985  31.294  1.00  0.00    +0.000 N 
ATOM     40  C29 UNL A   1      43.993  28.457  33.449  1.00  0.00    +0.000 C 
ATOM     52  C36 UNL A   1      43.074  29.289  33.997  1.00  0.00    +0.000 C 
ATOM     53  N5  UNL A   1      41.865  29.722  33.468  1.00  0.00    +0.000 N 
ATOM     54  C37 UNL A   1      41.340  30.513  34.371  1.00  0.00    +0.000 C 
ATOM     55  C38 UNL A   1      40.048  31.283  34.320  1.00  0.00    +0.000 C 
ATOM     67  C45 UNL A   1      39.299  31.243  33.201  1.00  0.00    +0.000 C 
ATOM     68  C46 UNL A   1      38.024  31.928  33.009  1.00  0.00    +0.000 C 
ATOM     69  C47 UNL A   1      37.525  31.596  31.807  1.00  0.00    +0.000 C 
ATOM     70  C48 UNL A   1      38.466  30.704  31.130  1.00  0.00    +0.000 C 
ATOM     71  N6  UNL A   1      39.505  30.576  32.018  1.00  0.00    +0.000 N 
ATOM     72  C49 UNL A   1      42.143  30.646  35.595  1.00  0.00    +0.000 C 
ATOM     73  C50 UNL A   1      43.204  29.905  35.301  1.00  0.00    +0.000 C 
ATOM     74  C51 UNL A   1      40.042  27.850  27.829  1.00  0.00    +0.000 C 
ATOM     75  C52 UNL A   1      39.052  28.714  27.987  1.00  0.00    +0.000 C 
ATOM    111  H21 UNL A   1      44.702  26.013  29.587  1.00  0.00    +0.000 H 
ATOM    112  H22 UNL A   1      45.651  26.618  31.938  1.00  0.00    +0.000 H 
ATOM    113  H23 UNL A   1      42.014  28.542  31.470  1.00  0.00    +0.000 H 
ATOM    114  H24 UNL A   1      37.578  32.564  33.688  1.00  0.00    +0.000 H 
ATOM    115  H25 UNL A   1      36.623  31.918  31.423  1.00  0.00    +0.000 H 
ATOM    116  H26 UNL A   1      40.319  30.057  31.826  1.00  0.00    +0.000 H 
ATOM    117  H27 UNL A   1      41.936  31.175  36.456  1.00  0.00    +0.000 H 
ATOM    118  H28 UNL A   1      44.018  29.784  35.923  1.00  0.00    +0.000 H 
ATOM    119  H29 UNL A   1      40.154  27.234  27.009  1.00  0.00    +0.000 H 
ATOM    120  H30 UNL A   1      38.298  28.969  27.330  1.00  0.00    +0.000 H 
ENDROOT
BRANCH   19   18
ATOM     76  C53 UNL A   1      36.791  31.625  28.578  1.00  0.00    +0.000 C 
ATOM    109  H19 UNL A   1      34.121  28.893  28.314  1.00  0.00    +0.000 H 
ATOM     77  C54 UNL A   1      35.595  31.884  27.917  1.00  0.00    +0.000 C 
ATOM     15  C11 UNL A   1      34.647  30.867  27.773  1.00  0.00    +0.000 C 
ATOM     16  C12 UNL A   1      34.842  29.628  28.389  1.00  0.00    +0.000 C 
ATOM     17  C13 UNL A   1      36.016  29.388  29.106  1.00  0.00    +0.000 C 
ATOM    110  H20 UNL A   1      36.153  28.482  29.580  1.00  0.00    +0.000 H 
ATOM     18  C14 UNL A   1      37.010  30.377  29.183  1.00  0.00    +0.000 C 
ATOM    121  H31 UNL A   1      37.520  32.352  28.625  1.00  0.00    +0.000 H 
ATOM    122  H32 UNL A   1      35.408  32.825  27.534  1.00  0.00    +0.000 H 
BRANCH   15   13
ATOM     13  C10 UNL A   1      33.427  31.086  26.968  1.00  0.00    +0.000 C 
ATOM     14  O2  UNL A   1      32.836  32.160  27.033  1.00  0.00    +0.000 O 
BRANCH   13   12
ATOM    108  H18 UNL A   1      33.502  29.864  25.378  1.00  0.00    +0.000 H 
ATOM     12  N2  UNL A   1      32.954  30.076  26.168  1.00  0.00    +0.000 N 
BRANCH   12   11
ATOM    106  H16 UNL A   1      31.175  29.683  27.139  1.00  0.00    +0.000 H 
ATOM     11  C9  UNL A   1      31.751  29.276  26.333  1.00  0.00    +0.000 C 
ATOM    107  H17 UNL A   1      31.209  29.306  25.411  1.00  0.00    +0.000 H 
BRANCH   11   10
ATOM    105  H15 UNL A   1      31.230  27.247  26.286  1.00  0.00    +0.000 H 
ATOM     10  C8  UNL A   1      32.063  27.816  26.641  1.00  0.00    +0.000 C 
ATOM    104  H14 UNL A   1      32.216  27.725  27.697  1.00  0.00    +0.000 H 
BRANCH   10    9
ATOM      9  C7  UNL A   1      33.301  27.263  25.933  1.00  0.00    +0.000 C 
ATOM    102  H12 UNL A   1      33.261  27.569  24.909  1.00  0.00    +0.000 H 
ATOM    103  H13 UNL A   1      34.146  27.651  26.460  1.00  0.00    +0.000 H 
BRANCH    9    8
ATOM    100  H10 UNL A   1      33.506  25.390  24.957  1.00  0.00    +0.000 H 
ATOM    101  H11 UNL A   1      34.312  25.534  26.550  1.00  0.00    +0.000 H 
ATOM      8  C6  UNL A   1      33.438  25.739  25.967  1.00  0.00    +0.000 C 
BRANCH    8    7
ATOM     98  H8  UNL A   1      32.628  24.651  27.605  1.00  0.00    +0.000 H 
ATOM     99  H9  UNL A   1      31.472  25.680  26.716  1.00  0.00    +0.000 H 
ATOM      7  C5  UNL A   1      32.287  24.988  26.650  1.00  0.00    +0.000 C 
BRANCH    7    6
ATOM     97  H7  UNL A   1      30.695  23.805  25.864  1.00  0.00    +0.000 H 
ATOM      6  C4  UNL A   1      31.765  23.775  25.870  1.00  0.00    +0.000 C 
ATOM     96  H6  UNL A   1      32.108  22.879  26.345  1.00  0.00    +0.000 H 
BRANCH    6    5
ATOM      5  N1  UNL A   1      32.239  23.799  24.500  1.00  0.00    +0.000 N 
ATOM     95  H5  UNL A   1      33.189  23.579  24.363  1.00  0.00    +0.000 H 
BRANCH    5    3
ATOM      3  C3  UNL A   1      31.518  24.093  23.375  1.00  0.00    +0.000 C 
ATOM      4  O1  UNL A   1      30.503  23.423  23.173  1.00  0.00    +0.000 O 
BRANCH    3    2
ATOM      2  C2  UNL A   1      32.020  25.190  22.415  1.00  0.00    +0.000 C 
ATOM     94  H4  UNL A   1      31.678  24.958  21.428  1.00  0.00    +0.000 H 
BRANCH    2    1
ATOM      1  C1  UNL A   1      33.554  25.194  22.436  1.00  0.00    +0.000 C 
ATOM     91  H1  UNL A   1      33.903  26.096  22.894  1.00  0.00    +0.000 H 
ATOM     92  H2  UNL A   1      33.926  25.137  21.435  1.00  0.00    +0.000 H 
ATOM     93  H3  UNL A   1      33.906  24.353  22.996  1.00  0.00    +0.000 H 
ENDBRANCH    2    1
BRANCH    2   78
ATOM    129  H39 UNL A   1      33.105  27.679  22.056  1.00  0.00    +0.000 H 
ATOM     78  C55 UNL A   1      31.420  26.579  22.695  1.00  0.00    +0.000 C 
ATOM     79  C56 UNL A   1      30.155  26.726  23.287  1.00  0.00    +0.000 C 
ATOM     80  C57 UNL A   1      29.592  27.991  23.495  1.00  0.00    +0.000 C 
ATOM     81  C58 UNL A   1      30.288  29.149  23.135  1.00  0.00    +0.000 C 
ATOM     89  C64 UNL A   1      31.582  29.020  22.622  1.00  0.00    +0.000 C 
ATOM     90  C65 UNL A   1      32.141  27.752  22.418  1.00  0.00    +0.000 C 
ATOM    123  H33 UNL A   1      29.629  25.886  23.575  1.00  0.00    +0.000 H 
ATOM    124  H34 UNL A   1      28.654  28.069  23.918  1.00  0.00    +0.000 H 
ATOM    128  H38 UNL A   1      32.128  29.866  22.392  1.00  0.00    +0.000 H 
BRANCH   81   82
ATOM     82  C59 UNL A   1      29.631  30.476  23.364  1.00  0.00    +0.000 C 
ATOM     83  O3  UNL A   1      29.734  30.985  24.479  1.00  0.00    +0.000 O 
BRANCH   82   84
ATOM     84  C60 UNL A   1      28.914  31.114  22.275  1.00  0.00    +0.000 C 
ATOM     85  C61 UNL A   1      28.409  30.568  21.109  1.00  0.00    +0.000 C 
ATOM     86  C62 UNL A   1      27.791  31.549  20.279  1.00  0.00    +0.000 C 
ATOM     87  C63 UNL A   1      27.829  32.803  20.847  1.00  0.00    +0.000 C 
ATOM     88  S1  UNL A   1      28.584  32.790  22.381  1.00  0.00    +0.000 S 
ATOM    125  H35 UNL A   1      28.474  29.567  20.867  1.00  0.00    +0.000 H 
ATOM    126  H36 UNL A   1      27.364  31.344  19.362  1.00  0.00    +0.000 H 
ATOM    127  H37 UNL A   1      27.447  33.651  20.400  1.00  0.00    +0.000 H 
ENDBRANCH   82   84
ENDBRANCH   81   82
ENDBRANCH    2   78
ENDBRANCH    3    2
ENDBRANCH    5    3
ENDBRANCH    6    5
ENDBRANCH    7    6
ENDBRANCH    8    7
ENDBRANCH    9    8
ENDBRANCH   10    9
ENDBRANCH   11   10
ENDBRANCH   12   11
ENDBRANCH   13   12
ENDBRANCH   15   13
ENDBRANCH   19   18
BRANCH   23   24
ATOM     33  C24 UNL A   1      43.327  26.698  26.884  1.00  0.00    +0.000 C 
ATOM     34  F5  UNL A   1      43.897  27.911  26.953  1.00  0.00    +0.000 F 
ATOM     24  C19 UNL A   1      42.435  26.277  27.880  1.00  0.00    +0.000 C 
ATOM     25  C20 UNL A   1      41.865  25.001  27.754  1.00  0.00    +0.000 C 
ATOM     26  F1  UNL A   1      41.016  24.546  28.689  1.00  0.00    +0.000 F 
ATOM     27  C21 UNL A   1      42.205  24.166  26.693  1.00  0.00    +0.000 C 
ATOM     28  F2  UNL A   1      41.692  22.930  26.625  1.00  0.00    +0.000 F 
ATOM     29  C22 UNL A   1      43.088  24.604  25.719  1.00  0.00    +0.000 C 
ATOM     30  F3  UNL A   1      43.415  23.799  24.698  1.00  0.00    +0.000 F 
ATOM     31  C23 UNL A   1      43.642  25.872  25.807  1.00  0.00    +0.000 C 
ATOM     32  F4  UNL A   1      44.489  26.300  24.860  1.00  0.00    +0.000 F 
ENDBRANCH   23   24
BRANCH   40   41
ATOM     41  C30 UNL A   1      45.243  28.198  34.235  1.00  0.00    +0.000 C 
ATOM     42  C31 UNL A   1      46.365  29.032  34.128  1.00  0.00    +0.000 C 
ATOM     43  F6  UNL A   1      46.368  30.052  33.255  1.00  0.00    +0.000 F 
ATOM     44  C32 UNL A   1      47.501  28.803  34.899  1.00  0.00    +0.000 C 
ATOM     45  F7  UNL A   1      48.575  29.591  34.759  1.00  0.00    +0.000 F 
ATOM     46  C33 UNL A   1      47.526  27.756  35.809  1.00  0.00    +0.000 C 
ATOM     47  F8  UNL A   1      48.616  27.543  36.559  1.00  0.00    +0.000 F 
ATOM     48  C34 UNL A   1      46.423  26.924  35.937  1.00  0.00    +0.000 C 
ATOM     49  F9  UNL A   1      46.441  25.919  36.823  1.00  0.00    +0.000 F 
ATOM     50  C35 UNL A   1      45.295  27.136  35.150  1.00  0.00    +0.000 C 
ATOM     51  F10 UNL A   1      44.245  26.315  35.291  1.00  0.00    +0.000 F 
ENDBRANCH   40   41
BRANCH   55   56
ATOM     65  C44 UNL A   1      40.087  33.412  35.663  1.00  0.00    +0.000 C 
ATOM     66  F15 UNL A   1      40.955  33.944  34.790  1.00  0.00    +0.000 F 
ATOM     56  C39 UNL A   1      39.605  32.111  35.470  1.00  0.00    +0.000 C 
ATOM     57  C40 UNL A   1      38.705  31.599  36.415  1.00  0.00    +0.000 C 
ATOM     58  F11 UNL A   1      38.204  30.365  36.261  1.00  0.00    +0.000 F 
ATOM     59  C41 UNL A   1      38.294  32.363  37.504  1.00  0.00    +0.000 C 
ATOM     60  F12 UNL A   1      37.410  31.862  38.377  1.00  0.00    +0.000 F 
ATOM     61  C42 UNL A   1      38.794  33.645  37.683  1.00  0.00    +0.000 C 
ATOM     62  F13 UNL A   1      38.407  34.377  38.736  1.00  0.00    +0.000 F 
ATOM     63  C43 UNL A   1      39.693  34.169  36.765  1.00  0.00    +0.000 C 
ATOM     64  F14 UNL A   1      40.188  35.401  36.942  1.00  0.00    +0.000 F 
ENDBRANCH   55   56
TORSDOF 19
ENDMDL
MODEL 3
REMARK VINA RESULT:     -10.1     37.305     42.799
ROOT
ATOM     19  C15 UNL A   1      14.039  53.693   5.213  1.00  0.00    +0.000 C 
ATOM     20  C16 UNL A   1      14.993  54.136   4.140  1.00  0.00    +0.000 C 
ATOM     21  N3  UNL A   1      15.450  53.472   3.110  1.00  0.00    +0.000 N 
ATOM     22  C17 UNL A   1      16.239  54.371   2.404  1.00  0.00    +0.000 C 
ATOM     23  C18 UNL A   1      16.969  54.154   1.285  1.00  0.00    +0.000 C 
ATOM     35  C25 UNL A   1      17.070  52.884   0.619  1.00  0.00    +0.000 C 
ATOM     36  C26 UNL A   1      17.831  52.546  -0.487  1.00  0.00    +0.000 C 
ATOM     37  C27 UNL A   1      17.585  51.203  -0.792  1.00  0.00    +0.000 C 
ATOM     38  C28 UNL A   1      16.703  50.694   0.148  1.00  0.00    +0.000 C 
ATOM     39  N4  UNL A   1      16.389  51.737   1.002  1.00  0.00    +0.000 N 
ATOM     40  C29 UNL A   1      16.185  49.354   0.258  1.00  0.00    +0.000 C 
ATOM     52  C36 UNL A   1      15.311  48.931   1.204  1.00  0.00    +0.000 C 
ATOM     53  N5  UNL A   1      14.748  49.646   2.253  1.00  0.00    +0.000 N 
ATOM     54  C37 UNL A   1      13.973  48.802   2.889  1.00  0.00    +0.000 C 
ATOM     55  C38 UNL A   1      13.137  49.026   4.120  1.00  0.00    +0.000 C 
ATOM     67  C45 UNL A   1      13.180  50.221   4.739  1.00  0.00    +0.000 C 
ATOM     68  C46 UNL A   1      12.421  50.587   5.931  1.00  0.00    +0.000 C 
ATOM     69  C47 UNL A   1      12.650  51.879   6.217  1.00  0.00    +0.000 C 
ATOM     70  C48 UNL A   1      13.603  52.421   5.248  1.00  0.00    +0.000 C 
ATOM     71  N6  UNL A   1      13.888  51.357   4.429  1.00  0.00    +0.000 N 
ATOM     72  C49 UNL A   1      13.931  47.459   2.295  1.00  0.00    +0.000 C 
ATOM     73  C50 UNL A   1      14.789  47.583   1.290  1.00  0.00    +0.000 C 
ATOM     74  C51 UNL A   1      16.167  55.637   3.103  1.00  0.00    +0.000 C 
ATOM     75  C52 UNL A   1      15.469  55.525   4.222  1.00  0.00    +0.000 C 
ATOM    111  H21 UNL A   1      18.470  53.174  -0.998  1.00  0.00    +0.000 H 
ATOM    112  H22 UNL A   1      17.991  50.680  -1.583  1.00  0.00    +0.000 H 
ATOM    113  H23 UNL A   1      15.774  51.676   1.769  1.00  0.00    +0.000 H 
ATOM    114  H24 UNL A   1      11.807  49.955   6.467  1.00  0.00    +0.000 H 
ATOM    115  H25 UNL A   1      12.223  52.405   6.996  1.00  0.00    +0.000 H 
ATOM    116  H26 UNL A   1      14.537  51.404   3.690  1.00  0.00    +0.000 H 
ATOM    117  H27 UNL A   1      13.380  46.635   2.582  1.00  0.00    +0.000 H 
ATOM    118  H28 UNL A   1      15.051  46.816   0.651  1.00  0.00    +0.000 H 
ATOM    119  H29 UNL A   1      16.603  56.511   2.771  1.00  0.00    +0.000 H 
ATOM    120  H30 UNL A   1      15.302  56.229   4.959  1.00  0.00    +0.000 H 
ENDROOT
BRANCH   19   18
ATOM     76  C53 UNL A   1      14.215  54.942   7.357  1.00  0.00    +0.000 C 
ATOM    109  H19 UNL A   1      10.949  56.820   6.669  1.00  0.00    +0.000 H 
ATOM     77  C54 UNL A   1      13.720  55.841   8.296  1.00  0.00    +0.000 C 
ATOM     15  C11 UNL A   1      12.558  56.567   8.016  1.00  0.00    +0.000 C 
ATOM     16  C12 UNL A   1      11.828  56.310   6.853  1.00  0.00    +0.000 C 
ATOM     17  C13 UNL A   1      12.293  55.362   5.938  1.00  0.00    +0.000 C 
ATOM    110  H20 UNL A   1      11.745  55.155   5.089  1.00  0.00    +0.000 H 
ATOM     18  C14 UNL A   1      13.504  54.690   6.172  1.00  0.00    +0.000 C 
ATOM    121  H31 UNL A   1      15.109  54.458   7.531  1.00  0.00    +0.000 H 
ATOM    122  H32 UNL A   1      14.208  55.971   9.196  1.00  0.00    +0.000 H 
BRANCH   15   13
ATOM     13  C10 UNL A   1      12.086  57.614   8.946  1.00  0.00    +0.000 C 
ATOM     14  O2  UNL A   1      12.431  58.780   8.780  1.00  0.00    +0.000 O 
BRANCH   13   12
ATOM    108  H18 UNL A   1      10.944  58.017  10.546  1.00  0.00    +0.000 H 
ATOM     12  N2  UNL A   1      11.278  57.268  10.001  1.00  0.00    +0.000 N 
BRANCH   12   11
ATOM    106  H16 UNL A   1       9.829  55.996  10.738  1.00  0.00    +0.000 H 
ATOM     11  C9  UNL A   1      10.850  55.943  10.420  1.00  0.00    +0.000 C 
ATOM    107  H17 UNL A   1      10.966  55.283   9.585  1.00  0.00    +0.000 H 
BRANCH   11   10
ATOM    105  H15 UNL A   1      11.010  55.132  12.345  1.00  0.00    +0.000 H 
ATOM     10  C8  UNL A   1      11.694  55.397  11.566  1.00  0.00    +0.000 C 
ATOM    104  H14 UNL A   1      12.390  56.156  11.858  1.00  0.00    +0.000 H 
BRANCH   10    9
ATOM      9  C7  UNL A   1      12.484  54.131  11.233  1.00  0.00    +0.000 C 
ATOM    102  H12 UNL A   1      11.840  53.290  11.384  1.00  0.00    +0.000 H 
ATOM    103  H13 UNL A   1      12.810  54.240  10.221  1.00  0.00    +0.000 H 
BRANCH    9    8
ATOM    100  H10 UNL A   1      14.307  54.829  12.062  1.00  0.00    +0.000 H 
ATOM    101  H11 UNL A   1      13.411  53.629  13.044  1.00  0.00    +0.000 H 
ATOM      8  C6  UNL A   1      13.747  53.917  12.070  1.00  0.00    +0.000 C 
BRANCH    8    7
ATOM     98  H8  UNL A   1      15.672  53.030  11.888  1.00  0.00    +0.000 H 
ATOM     99  H9  UNL A   1      14.307  51.888  12.035  1.00  0.00    +0.000 H 
ATOM      7  C5  UNL A   1      14.672  52.791  11.590  1.00  0.00    +0.000 C 
BRANCH    7    6
ATOM     97  H7  UNL A   1      14.897  53.484   9.586  1.00  0.00    +0.000 H 
ATOM      6  C4  UNL A   1      14.665  52.561  10.074  1.00  0.00    +0.000 C 
ATOM     96  H6  UNL A   1      13.697  52.216   9.775  1.00  0.00    +0.000 H 
BRANCH    6    5
ATOM      5  N1  UNL A   1      15.659  51.574   9.698  1.00  0.00    +0.000 N 
ATOM     95  H5  UNL A   1      16.208  51.208  10.428  1.00  0.00    +0.000 H 
BRANCH    5    3
ATOM      3  C3  UNL A   1      15.921  51.092   8.443  1.00  0.00    +0.000 C 
ATOM      4  O1  UNL A   1      15.967  51.917   7.529  1.00  0.00    +0.000 O 
BRANCH    3    2
ATOM      2  C2  UNL A   1      16.097  49.574   8.233  1.00  0.00    +0.000 C 
ATOM     94  H4  UNL A   1      16.909  49.242   8.844  1.00  0.00    +0.000 H 
BRANCH    2    1
ATOM      1  C1  UNL A   1      16.430  49.320   6.757  1.00  0.00    +0.000 C 
ATOM     91  H1  UNL A   1      16.238  48.295   6.519  1.00  0.00    +0.000 H 
ATOM     92  H2  UNL A   1      17.462  49.539   6.581  1.00  0.00    +0.000 H 
ATOM     93  H3  UNL A   1      15.822  49.948   6.141  1.00  0.00    +0.000 H 
ENDBRANCH    2    1
BRANCH    2   78
ATOM    129  H39 UNL A   1      15.996  46.970   9.072  1.00  0.00    +0.000 H 
ATOM     78  C55 UNL A   1      14.901  48.740   8.723  1.00  0.00    +0.000 C 
ATOM     79  C56 UNL A   1      13.595  49.259   8.726  1.00  0.00    +0.000 C 
ATOM     80  C57 UNL A   1      12.518  48.514   9.219  1.00  0.00    +0.000 C 
ATOM     81  C58 UNL A   1      12.710  47.217   9.706  1.00  0.00    +0.000 C 
ATOM     89  C64 UNL A   1      13.989  46.658   9.631  1.00  0.00    +0.000 C 
ATOM     90  C65 UNL A   1      15.064  47.407   9.135  1.00  0.00    +0.000 C 
ATOM    123  H33 UNL A   1      13.426  50.208   8.357  1.00  0.00    +0.000 H 
ATOM    124  H34 UNL A   1      11.572  48.926   9.223  1.00  0.00    +0.000 H 
ATOM    128  H38 UNL A   1      14.142  45.686   9.945  1.00  0.00    +0.000 H 
BRANCH   81   82
ATOM     82  C59 UNL A   1      11.524  46.471  10.237  1.00  0.00    +0.000 C 
ATOM     83  O3  UNL A   1      10.710  46.032   9.427  1.00  0.00    +0.000 O 
BRANCH   82   84
ATOM     84  C60 UNL A   1      11.384  46.285  11.670  1.00  0.00    +0.000 C 
ATOM     85  C61 UNL A   1      12.054  45.423  12.519  1.00  0.00    +0.000 C 
ATOM     86  C62 UNL A   1      11.595  45.531  13.866  1.00  0.00    +0.000 C 
ATOM     87  C63 UNL A   1      10.606  46.480  13.999  1.00  0.00    +0.000 C 
ATOM     88  S1  UNL A   1      10.252  47.252  12.515  1.00  0.00    +0.000 S 
ATOM    125  H35 UNL A   1      12.798  44.778  12.214  1.00  0.00    +0.000 H 
ATOM    126  H36 UNL A   1      11.961  44.965  14.647  1.00  0.00    +0.000 H 
ATOM    127  H37 UNL A   1      10.134  46.699  14.890  1.00  0.00    +0.000 H 
ENDBRANCH   82   84
ENDBRANCH   81   82
ENDBRANCH    2   78
ENDBRANCH    3    2
ENDBRANCH    5    3
ENDBRANCH    6    5
ENDBRANCH    7    6
ENDBRANCH    8    7
ENDBRANCH    9    8
ENDBRANCH   10    9
ENDBRANCH   11   10
ENDBRANCH   12   11
ENDBRANCH   13   12
ENDBRANCH   15   13
ENDBRANCH   19   18
BRANCH   23   24
ATOM     33  C24 UNL A   1      17.152  56.080  -0.330  1.00  0.00    +0.000 C 
ATOM     34  F5  UNL A   1      15.943  55.765  -0.820  1.00  0.00    +0.000 F 
ATOM     24  C19 UNL A   1      17.712  55.326   0.711  1.00  0.00    +0.000 C 
ATOM     25  C20 UNL A   1      18.982  55.696   1.181  1.00  0.00    +0.000 C 
ATOM     26  F1  UNL A   1      19.554  55.014   2.185  1.00  0.00    +0.000 F 
ATOM     27  C21 UNL A   1      19.645  56.802   0.656  1.00  0.00    +0.000 C 
ATOM     28  F2  UNL A   1      20.830  57.171   1.161  1.00  0.00    +0.000 F 
ATOM     29  C22 UNL A   1      19.073  57.532  -0.374  1.00  0.00    +0.000 C 
ATOM     30  F3  UNL A   1      19.712  58.597  -0.878  1.00  0.00    +0.000 F 
ATOM     31  C23 UNL A   1      17.832  57.167  -0.874  1.00  0.00    +0.000 C 
ATOM     32  F4  UNL A   1      17.282  57.867  -1.876  1.00  0.00    +0.000 F 
ENDBRANCH   23   24
BRANCH   40   41
ATOM     41  C30 UNL A   1      16.669  48.341  -0.735  1.00  0.00    +0.000 C 
ATOM     42  C31 UNL A   1      15.897  47.972  -1.846  1.00  0.00    +0.000 C 
ATOM     43  F6  UNL A   1      14.662  48.472  -2.005  1.00  0.00    +0.000 F 
ATOM     44  C32 UNL A   1      16.382  47.064  -2.782  1.00  0.00    +0.000 C 
ATOM     45  F7  UNL A   1      15.616  46.699  -3.819  1.00  0.00    +0.000 F 
ATOM     46  C33 UNL A   1      17.655  46.531  -2.642  1.00  0.00    +0.000 C 
ATOM     47  F8  UNL A   1      18.125  45.665  -3.550  1.00  0.00    +0.000 F 
ATOM     48  C34 UNL A   1      18.439  46.889  -1.555  1.00  0.00    +0.000 C 
ATOM     49  F9  UNL A   1      19.673  46.383  -1.424  1.00  0.00    +0.000 F 
ATOM     50  C35 UNL A   1      17.948  47.779  -0.604  1.00  0.00    +0.000 C 
ATOM     51  F10 UNL A   1      18.725  48.105   0.438  1.00  0.00    +0.000 F 
ENDBRANCH   40   41
BRANCH   55   56
ATOM     65  C44 UNL A   1      10.952  47.788   4.303  1.00  0.00    +0.000 C 
ATOM     66  F15 UNL A   1      10.407  48.622   3.406  1.00  0.00    +0.000 F 
ATOM     56  C39 UNL A   1      12.293  47.940   4.679  1.00  0.00    +0.000 C 
ATOM     57  C40 UNL A   1      12.814  47.046   5.625  1.00  0.00    +0.000 C 
ATOM     58  F11 UNL A   1      14.097  47.143   6.001  1.00  0.00    +0.000 F 
ATOM     59  C41 UNL A   1      12.027  46.032   6.165  1.00  0.00    +0.000 C 
ATOM     60  F12 UNL A   1      12.556  45.171   7.045  1.00  0.00    +0.000 F 
ATOM     61  C42 UNL A   1      10.698  45.907   5.788  1.00  0.00    +0.000 C 
ATOM     62  F13 UNL A   1       9.937  44.938   6.314  1.00  0.00    +0.000 F 
ATOM     63  C43 UNL A   1      10.158  46.786   4.860  1.00  0.00    +0.000 C 
ATOM     64  F14 UNL A   1       8.871  46.678   4.503  1.00  0.00    +0.000 F 
ENDBRANCH   55   56
TORSDOF 19
ENDMDL
MODEL 4
REMARK VINA RESULT:      -9.9      3.777      7.180
ROOT
ATOM     19  C15 UNL A   1      40.666  28.094  28.889  1.00  0.00    +0.000 C 
ATOM     20  C16 UNL A   1      42.070  28.213  29.410  1.00  0.00    +0.000 C 
ATOM     21  N3  UNL A   1      42.600  29.144  30.161  1.00  0.00    +0.000 N 
ATOM     22  C17 UNL A   1      43.903  28.731  30.406  1.00  0.00    +0.000 C 
ATOM     23  C18 UNL A   1      44.875  29.372  31.097  1.00  0.00    +0.000 C 
ATOM     35  C25 UNL A   1      44.715  30.666  31.705  1.00  0.00    +0.000 C 
ATOM     36  C26 UNL A   1      45.657  31.428  32.375  1.00  0.00    +0.000 C 
ATOM     37  C27 UNL A   1      45.036  32.601  32.816  1.00  0.00    +0.000 C 
ATOM     38  C28 UNL A   1      43.719  32.589  32.384  1.00  0.00    +0.000 C 
ATOM     39  N4  UNL A   1      43.534  31.393  31.711  1.00  0.00    +0.000 N 
ATOM     40  C29 UNL A   1      42.704  33.594  32.572  1.00  0.00    +0.000 C 
ATOM     52  C36 UNL A   1      41.427  33.506  32.128  1.00  0.00    +0.000 C 
ATOM     53  N5  UNL A   1      40.824  32.485  31.405  1.00  0.00    +0.000 N 
ATOM     54  C37 UNL A   1      39.584  32.863  31.213  1.00  0.00    +0.000 C 
ATOM     55  C38 UNL A   1      38.482  32.158  30.469  1.00  0.00    +0.000 C 
ATOM     67  C45 UNL A   1      38.747  30.996  29.843  1.00  0.00    +0.000 C 
ATOM     68  C46 UNL A   1      37.783  30.197  29.093  1.00  0.00    +0.000 C 
ATOM     69  C47 UNL A   1      38.377  29.066  28.680  1.00  0.00    +0.000 C 
ATOM     70  C48 UNL A   1      39.777  29.080  29.104  1.00  0.00    +0.000 C 
ATOM     71  N6  UNL A   1      39.916  30.278  29.759  1.00  0.00    +0.000 N 
ATOM     72  C49 UNL A   1      39.249  34.158  31.823  1.00  0.00    +0.000 C 
ATOM     73  C50 UNL A   1      40.416  34.521  32.340  1.00  0.00    +0.000 C 
ATOM     74  C51 UNL A   1      44.071  27.448  29.757  1.00  0.00    +0.000 C 
ATOM     75  C52 UNL A   1      42.990  27.118  29.066  1.00  0.00    +0.000 C 
ATOM    111  H21 UNL A   1      46.646  31.175  32.524  1.00  0.00    +0.000 H 
ATOM    112  H22 UNL A   1      45.482  33.349  33.369  1.00  0.00    +0.000 H 
ATOM    113  H23 UNL A   1      42.689  31.100  31.298  1.00  0.00    +0.000 H 
ATOM    114  H24 UNL A   1      36.801  30.459  28.910  1.00  0.00    +0.000 H 
ATOM    115  H25 UNL A   1      37.920  28.309  28.147  1.00  0.00    +0.000 H 
ATOM    116  H26 UNL A   1      40.770  30.593  30.134  1.00  0.00    +0.000 H 
ATOM    117  H27 UNL A   1      38.345  34.655  31.844  1.00  0.00    +0.000 H 
ATOM    118  H28 UNL A   1      40.582  35.414  32.830  1.00  0.00    +0.000 H 
ATOM    119  H29 UNL A   1      44.921  26.867  29.825  1.00  0.00    +0.000 H 
ATOM    120  H30 UNL A   1      42.835  26.306  28.449  1.00  0.00    +0.000 H 
ENDROOT
BRANCH   19   18
ATOM     76  C53 UNL A   1      39.514  25.890  28.959  1.00  0.00    +0.000 C 
ATOM    109  H19 UNL A   1      40.358  25.196  25.290  1.00  0.00    +0.000 H 
ATOM     77  C54 UNL A   1      39.134  24.686  28.376  1.00  0.00    +0.000 C 
ATOM     15  C11 UNL A   1      39.394  24.460  27.020  1.00  0.00    +0.000 C 
ATOM     16  C12 UNL A   1      40.133  25.385  26.280  1.00  0.00    +0.000 C 
ATOM     17  C13 UNL A   1      40.569  26.567  26.883  1.00  0.00    +0.000 C 
ATOM    110  H20 UNL A   1      41.134  27.242  26.346  1.00  0.00    +0.000 H 
ATOM     18  C14 UNL A   1      40.239  26.839  28.221  1.00  0.00    +0.000 C 
ATOM    121  H31 UNL A   1      39.261  26.087  29.940  1.00  0.00    +0.000 H 
ATOM    122  H32 UNL A   1      38.663  23.962  28.941  1.00  0.00    +0.000 H 
BRANCH   15   13
ATOM     13  C10 UNL A   1      38.889  23.242  26.353  1.00  0.00    +0.000 C 
ATOM     14  O2  UNL A   1      39.674  22.364  26.007  1.00  0.00    +0.000 O 
BRANCH   13   12
ATOM    108  H18 UNL A   1      37.072  22.448  26.659  1.00  0.00    +0.000 H 
ATOM     12  N2  UNL A   1      37.544  23.113  26.108  1.00  0.00    +0.000 N 
BRANCH   12   11
ATOM    106  H16 UNL A   1      35.749  23.968  25.557  1.00  0.00    +0.000 H 
ATOM     11  C9  UNL A   1      36.725  23.827  25.142  1.00  0.00    +0.000 C 
ATOM    107  H17 UNL A   1      37.202  24.763  24.938  1.00  0.00    +0.000 H 
BRANCH   11   10
ATOM    105  H15 UNL A   1      36.524  22.036  24.075  1.00  0.00    +0.000 H 
ATOM     10  C8  UNL A   1      36.593  23.074  23.824  1.00  0.00    +0.000 C 
ATOM    104  H14 UNL A   1      37.447  23.305  23.221  1.00  0.00    +0.000 H 
BRANCH   10    9
ATOM      9  C7  UNL A   1      35.338  23.409  23.017  1.00  0.00    +0.000 C 
ATOM    102  H12 UNL A   1      35.636  23.618  22.012  1.00  0.00    +0.000 H 
ATOM    103  H13 UNL A   1      34.694  22.559  23.101  1.00  0.00    +0.000 H 
BRANCH    9    8
ATOM    100  H10 UNL A   1      34.099  24.330  24.472  1.00  0.00    +0.000 H 
ATOM    101  H11 UNL A   1      35.230  25.416  23.607  1.00  0.00    +0.000 H 
ATOM      8  C6  UNL A   1      34.536  24.605  23.534  1.00  0.00    +0.000 C 
BRANCH    8    7
ATOM     98  H8  UNL A   1      33.831  25.300  21.651  1.00  0.00    +0.000 H 
ATOM     99  H9  UNL A   1      32.679  24.309  22.588  1.00  0.00    +0.000 H 
ATOM      7  C5  UNL A   1      33.410  25.091  22.612  1.00  0.00    +0.000 C 
BRANCH    7    6
ATOM     97  H7  UNL A   1      32.139  26.772  22.281  1.00  0.00    +0.000 H 
ATOM      6  C4  UNL A   1      32.683  26.350  23.101  1.00  0.00    +0.000 C 
ATOM     96  H6  UNL A   1      33.403  27.051  23.469  1.00  0.00    +0.000 H 
BRANCH    6    5
ATOM      5  N1  UNL A   1      31.748  26.026  24.162  1.00  0.00    +0.000 N 
ATOM     95  H5  UNL A   1      31.783  26.598  24.963  1.00  0.00    +0.000 H 
BRANCH    5    3
ATOM      3  C3  UNL A   1      30.824  25.017  24.177  1.00  0.00    +0.000 C 
ATOM      4  O1  UNL A   1      30.012  24.992  23.250  1.00  0.00    +0.000 O 
BRANCH    3    2
ATOM      2  C2  UNL A   1      30.815  24.012  25.346  1.00  0.00    +0.000 C 
ATOM     94  H4  UNL A   1      29.875  23.501  25.345  1.00  0.00    +0.000 H 
BRANCH    2    1
ATOM      1  C1  UNL A   1      30.972  24.789  26.660  1.00  0.00    +0.000 C 
ATOM     91  H1  UNL A   1      31.679  25.581  26.524  1.00  0.00    +0.000 H 
ATOM     92  H2  UNL A   1      31.322  24.128  27.426  1.00  0.00    +0.000 H 
ATOM     93  H3  UNL A   1      30.028  25.200  26.948  1.00  0.00    +0.000 H 
ENDBRANCH    2    1
BRANCH    2   78
ATOM    129  H39 UNL A   1      32.887  23.300  26.988  1.00  0.00    +0.000 H 
ATOM     78  C55 UNL A   1      31.849  22.883  25.198  1.00  0.00    +0.000 C 
ATOM     79  C56 UNL A   1      31.882  22.062  24.059  1.00  0.00    +0.000 C 
ATOM     80  C57 UNL A   1      32.792  21.004  23.951  1.00  0.00    +0.000 C 
ATOM     81  C58 UNL A   1      33.712  20.748  24.972  1.00  0.00    +0.000 C 
ATOM     89  C64 UNL A   1      33.747  21.607  26.073  1.00  0.00    +0.000 C 
ATOM     90  C65 UNL A   1      32.834  22.666  26.176  1.00  0.00    +0.000 C 
ATOM    123  H33 UNL A   1      31.222  22.242  23.285  1.00  0.00    +0.000 H 
ATOM    124  H34 UNL A   1      32.784  20.408  23.109  1.00  0.00    +0.000 H 
ATOM    128  H38 UNL A   1      34.448  21.461  26.816  1.00  0.00    +0.000 H 
BRANCH   81   82
ATOM     82  C59 UNL A   1      34.652  19.592  24.811  1.00  0.00    +0.000 C 
ATOM     83  O3  UNL A   1      35.860  19.828  24.812  1.00  0.00    +0.000 O 
BRANCH   82   84
ATOM     84  C60 UNL A   1      34.116  18.250  24.674  1.00  0.00    +0.000 C 
ATOM     85  C61 UNL A   1      34.515  17.219  23.843  1.00  0.00    +0.000 C 
ATOM     86  C62 UNL A   1      33.699  16.059  23.996  1.00  0.00    +0.000 C 
ATOM     87  C63 UNL A   1      32.720  16.239  24.948  1.00  0.00    +0.000 C 
ATOM     88  S1  UNL A   1      32.801  17.788  25.668  1.00  0.00    +0.000 S 
ATOM    125  H35 UNL A   1      35.310  17.283  23.188  1.00  0.00    +0.000 H 
ATOM    126  H36 UNL A   1      33.828  15.188  23.458  1.00  0.00    +0.000 H 
ATOM    127  H37 UNL A   1      32.020  15.523  25.197  1.00  0.00    +0.000 H 
ENDBRANCH   82   84
ENDBRANCH   81   82
ENDBRANCH    2   78
ENDBRANCH    3    2
ENDBRANCH    5    3
ENDBRANCH    6    5
ENDBRANCH    7    6
ENDBRANCH    8    7
ENDBRANCH    9    8
ENDBRANCH   10    9
ENDBRANCH   11   10
ENDBRANCH   12   11
ENDBRANCH   13   12
ENDBRANCH   15   13
ENDBRANCH   19   18
BRANCH   23   24
ATOM     33  C24 UNL A   1      46.427  27.793  32.299  1.00  0.00    +0.000 C 
ATOM     34  F5  UNL A   1      45.466  27.560  33.206  1.00  0.00    +0.000 F 
ATOM     24  C19 UNL A   1      46.197  28.674  31.233  1.00  0.00    +0.000 C 
ATOM     25  C20 UNL A   1      47.240  28.885  30.318  1.00  0.00    +0.000 C 
ATOM     26  F1  UNL A   1      47.064  29.709  29.273  1.00  0.00    +0.000 F 
ATOM     27  C21 UNL A   1      48.450  28.208  30.443  1.00  0.00    +0.000 C 
ATOM     28  F2  UNL A   1      49.410  28.382  29.524  1.00  0.00    +0.000 F 
ATOM     29  C22 UNL A   1      48.656  27.342  31.506  1.00  0.00    +0.000 C 
ATOM     30  F3  UNL A   1      49.822  26.691  31.625  1.00  0.00    +0.000 F 
ATOM     31  C23 UNL A   1      47.650  27.141  32.439  1.00  0.00    +0.000 C 
ATOM     32  F4  UNL A   1      47.852  26.311  33.472  1.00  0.00    +0.000 F 
ENDBRANCH   23   24
BRANCH   40   41
ATOM     41  C30 UNL A   1      43.098  34.848  33.293  1.00  0.00    +0.000 C 
ATOM     42  C31 UNL A   1      43.070  34.932  34.692  1.00  0.00    +0.000 C 
ATOM     43  F6  UNL A   1      42.617  33.900  35.421  1.00  0.00    +0.000 F 
ATOM     44  C32 UNL A   1      43.483  36.089  35.346  1.00  0.00    +0.000 C 
ATOM     45  F7  UNL A   1      43.419  36.161  36.683  1.00  0.00    +0.000 F 
ATOM     46  C33 UNL A   1      43.956  37.171  34.617  1.00  0.00    +0.000 C 
ATOM     47  F8  UNL A   1      44.364  38.280  35.249  1.00  0.00    +0.000 F 
ATOM     48  C34 UNL A   1      44.000  37.105  33.232  1.00  0.00    +0.000 C 
ATOM     49  F9  UNL A   1      44.467  38.145  32.527  1.00  0.00    +0.000 F 
ATOM     50  C35 UNL A   1      43.566  35.959  32.574  1.00  0.00    +0.000 C 
ATOM     51  F10 UNL A   1      43.615  35.924  31.235  1.00  0.00    +0.000 F 
ENDBRANCH   40   41
BRANCH   55   56
ATOM     65  C44 UNL A   1      36.178  32.548  31.406  1.00  0.00    +0.000 C 
ATOM     66  F15 UNL A   1      36.504  31.837  32.495  1.00  0.00    +0.000 F 
ATOM     56  C39 UNL A   1      37.119  32.742  30.387  1.00  0.00    +0.000 C 
ATOM     57  C40 UNL A   1      36.728  33.488  29.266  1.00  0.00    +0.000 C 
ATOM     58  F11 UNL A   1      37.602  33.713  28.275  1.00  0.00    +0.000 F 
ATOM     59  C41 UNL A   1      35.448  34.028  29.174  1.00  0.00    +0.000 C 
ATOM     60  F12 UNL A   1      35.108  34.763  28.106  1.00  0.00    +0.000 F 
ATOM     61  C42 UNL A   1      34.528  33.814  30.189  1.00  0.00    +0.000 C 
ATOM     62  F13 UNL A   1      33.293  34.325  30.097  1.00  0.00    +0.000 F 
ATOM     63  C43 UNL A   1      34.890  33.071  31.303  1.00  0.00    +0.000 C 
ATOM     64  F14 UNL A   1      33.999  32.850  32.280  1.00  0.00    +0.000 F 
ENDBRANCH   55   56
TORSDOF 19
ENDMDL
MODEL 5
REMARK VINA RESULT:      -9.9      4.025      9.022
ROOT
ATOM     19  C15 UNL A   1      41.614  26.058  27.613  1.00  0.00    +0.000 C 
ATOM     20  C16 UNL A   1      40.891  27.132  28.375  1.00  0.00    +0.000 C 
ATOM     21  N3  UNL A   1      41.298  28.331  28.709  1.00  0.00    +0.000 N 
ATOM     22  C17 UNL A   1      40.217  28.932  29.339  1.00  0.00    +0.000 C 
ATOM     23  C18 UNL A   1      40.147  30.159  29.906  1.00  0.00    +0.000 C 
ATOM     35  C25 UNL A   1      41.247  31.084  29.971  1.00  0.00    +0.000 C 
ATOM     36  C26 UNL A   1      41.296  32.327  30.578  1.00  0.00    +0.000 C 
ATOM     37  C27 UNL A   1      42.567  32.870  30.357  1.00  0.00    +0.000 C 
ATOM     38  C28 UNL A   1      43.321  31.948  29.650  1.00  0.00    +0.000 C 
ATOM     39  N4  UNL A   1      42.498  30.860  29.413  1.00  0.00    +0.000 N 
ATOM     40  C29 UNL A   1      44.693  32.051  29.221  1.00  0.00    +0.000 C 
ATOM     52  C36 UNL A   1      45.364  31.106  28.519  1.00  0.00    +0.000 C 
ATOM     53  N5  UNL A   1      44.920  29.865  28.081  1.00  0.00    +0.000 N 
ATOM     54  C37 UNL A   1      45.932  29.322  27.451  1.00  0.00    +0.000 C 
ATOM     55  C38 UNL A   1      46.025  27.971  26.795  1.00  0.00    +0.000 C 
ATOM     67  C45 UNL A   1      44.978  27.127  26.870  1.00  0.00    +0.000 C 
ATOM     68  C46 UNL A   1      44.919  25.794  26.277  1.00  0.00    +0.000 C 
ATOM     69  C47 UNL A   1      43.696  25.278  26.480  1.00  0.00    +0.000 C 
ATOM     70  C48 UNL A   1      42.898  26.231  27.252  1.00  0.00    +0.000 C 
ATOM     71  N6  UNL A   1      43.751  27.285  27.466  1.00  0.00    +0.000 N 
ATOM     72  C49 UNL A   1      47.129  30.172  27.390  1.00  0.00    +0.000 C 
ATOM     73  C50 UNL A   1      46.740  31.235  28.084  1.00  0.00    +0.000 C 
ATOM     74  C51 UNL A   1      39.125  27.982  29.307  1.00  0.00    +0.000 C 
ATOM     75  C52 UNL A   1      39.513  26.827  28.788  1.00  0.00    +0.000 C 
ATOM    111  H21 UNL A   1      40.530  32.776  31.102  1.00  0.00    +0.000 H 
ATOM    112  H22 UNL A   1      42.888  33.800  30.668  1.00  0.00    +0.000 H 
ATOM    113  H23 UNL A   1      42.759  30.048  28.921  1.00  0.00    +0.000 H 
ATOM    114  H24 UNL A   1      45.692  25.324  25.781  1.00  0.00    +0.000 H 
ATOM    115  H25 UNL A   1      43.371  24.357  26.146  1.00  0.00    +0.000 H 
ATOM    116  H26 UNL A   1      43.506  28.078  27.996  1.00  0.00    +0.000 H 
ATOM    117  H27 UNL A   1      48.035  29.992  26.930  1.00  0.00    +0.000 H 
ATOM    118  H28 UNL A   1      47.340  32.048  28.287  1.00  0.00    +0.000 H 
ATOM    119  H29 UNL A   1      38.170  28.179  29.645  1.00  0.00    +0.000 H 
ATOM    120  H30 UNL A   1      38.986  25.944  28.697  1.00  0.00    +0.000 H 
ENDROOT
BRANCH   19   18
ATOM     76  C53 UNL A   1      41.384  23.584  27.506  1.00  0.00    +0.000 C 
ATOM    109  H19 UNL A   1      38.135  23.852  25.499  1.00  0.00    +0.000 H 
ATOM     77  C54 UNL A   1      40.737  22.430  27.076  1.00  0.00    +0.000 C 
ATOM     15  C11 UNL A   1      39.521  22.531  26.393  1.00  0.00    +0.000 C 
ATOM     16  C12 UNL A   1      39.012  23.783  26.039  1.00  0.00    +0.000 C 
ATOM     17  C13 UNL A   1      39.695  24.941  26.416  1.00  0.00    +0.000 C 
ATOM    110  H20 UNL A   1      39.334  25.866  26.137  1.00  0.00    +0.000 H 
ATOM     18  C14 UNL A   1      40.873  24.849  27.176  1.00  0.00    +0.000 C 
ATOM    121  H31 UNL A   1      42.245  23.510  28.070  1.00  0.00    +0.000 H 
ATOM    122  H32 UNL A   1      41.152  21.503  27.261  1.00  0.00    +0.000 H 
BRANCH   15   13
ATOM     13  C10 UNL A   1      38.757  21.317  26.039  1.00  0.00    +0.000 C 
ATOM     14  O2  UNL A   1      39.307  20.220  26.059  1.00  0.00    +0.000 O 
BRANCH   13   12
ATOM    108  H18 UNL A   1      36.806  21.622  26.399  1.00  0.00    +0.000 H 
ATOM     12  N2  UNL A   1      37.439  21.430  25.669  1.00  0.00    +0.000 N 
BRANCH   12   11
ATOM    106  H16 UNL A   1      37.477  20.665  23.753  1.00  0.00    +0.000 H 
ATOM     11  C9  UNL A   1      36.854  21.305  24.344  1.00  0.00    +0.000 C 
ATOM    107  H17 UNL A   1      35.871  20.899  24.458  1.00  0.00    +0.000 H 
BRANCH   11   10
ATOM    105  H15 UNL A   1      36.774  22.447  22.589  1.00  0.00    +0.000 H 
ATOM     10  C8  UNL A   1      36.724  22.650  23.639  1.00  0.00    +0.000 C 
ATOM    104  H14 UNL A   1      37.515  23.284  23.982  1.00  0.00    +0.000 H 
BRANCH   10    9
ATOM      9  C7  UNL A   1      35.398  23.373  23.878  1.00  0.00    +0.000 C 
ATOM    102  H12 UNL A   1      35.154  23.920  22.992  1.00  0.00    +0.000 H 
ATOM    103  H13 UNL A   1      34.684  22.614  24.119  1.00  0.00    +0.000 H 
BRANCH    9    8
ATOM    100  H10 UNL A   1      36.366  24.323  25.509  1.00  0.00    +0.000 H 
ATOM    101  H11 UNL A   1      35.144  25.307  24.645  1.00  0.00    +0.000 H 
ATOM      8  C6  UNL A   1      35.397  24.351  25.055  1.00  0.00    +0.000 C 
BRANCH    8    7
ATOM     98  H8  UNL A   1      34.665  24.567  27.041  1.00  0.00    +0.000 H 
ATOM     99  H9  UNL A   1      33.419  24.424  25.770  1.00  0.00    +0.000 H 
ATOM      7  C5  UNL A   1      34.356  24.068  26.146  1.00  0.00    +0.000 C 
BRANCH    7    6
ATOM     97  H7  UNL A   1      34.303  22.437  27.520  1.00  0.00    +0.000 H 
ATOM      6  C4  UNL A   1      34.158  22.582  26.470  1.00  0.00    +0.000 C 
ATOM     96  H6  UNL A   1      34.867  22.004  25.914  1.00  0.00    +0.000 H 
BRANCH    6    5
ATOM      5  N1  UNL A   1      32.817  22.153  26.123  1.00  0.00    +0.000 N 
ATOM     95  H5  UNL A   1      32.107  22.376  26.767  1.00  0.00    +0.000 H 
BRANCH    5    3
ATOM      3  C3  UNL A   1      32.424  21.473  25.001  1.00  0.00    +0.000 C 
ATOM      4  O1  UNL A   1      32.800  20.304  24.899  1.00  0.00    +0.000 O 
BRANCH    3    2
ATOM      2  C2  UNL A   1      31.589  22.198  23.926  1.00  0.00    +0.000 C 
ATOM     94  H4  UNL A   1      30.578  21.858  23.999  1.00  0.00    +0.000 H 
BRANCH    2    1
ATOM      1  C1  UNL A   1      32.151  21.838  22.545  1.00  0.00    +0.000 C 
ATOM     91  H1  UNL A   1      31.990  20.798  22.353  1.00  0.00    +0.000 H 
ATOM     92  H2  UNL A   1      33.200  22.045  22.521  1.00  0.00    +0.000 H 
ATOM     93  H3  UNL A   1      31.656  22.419  21.796  1.00  0.00    +0.000 H 
ENDBRANCH    2    1
BRANCH    2   78
ATOM    129  H39 UNL A   1      30.232  23.607  25.841  1.00  0.00    +0.000 H 
ATOM     78  C55 UNL A   1      31.484  23.717  24.146  1.00  0.00    +0.000 C 
ATOM     79  C56 UNL A   1      32.077  24.630  23.258  1.00  0.00    +0.000 C 
ATOM     80  C57 UNL A   1      32.021  26.009  23.489  1.00  0.00    +0.000 C 
ATOM     81  C58 UNL A   1      31.353  26.519  24.606  1.00  0.00    +0.000 C 
ATOM     89  C64 UNL A   1      30.687  25.628  25.453  1.00  0.00    +0.000 C 
ATOM     90  C65 UNL A   1      30.745  24.248  25.216  1.00  0.00    +0.000 C 
ATOM    123  H33 UNL A   1      32.563  24.278  22.418  1.00  0.00    +0.000 H 
ATOM    124  H34 UNL A   1      32.479  26.657  22.828  1.00  0.00    +0.000 H 
ATOM    128  H38 UNL A   1      30.151  25.988  26.258  1.00  0.00    +0.000 H 
BRANCH   81   82
ATOM     82  C59 UNL A   1      31.339  28.003  24.814  1.00  0.00    +0.000 C 
ATOM     83  O3  UNL A   1      30.512  28.665  24.188  1.00  0.00    +0.000 O 
BRANCH   82   84
ATOM     84  C60 UNL A   1      32.282  28.602  25.742  1.00  0.00    +0.000 C 
ATOM     85  C61 UNL A   1      33.386  28.046  26.361  1.00  0.00    +0.000 C 
ATOM     86  C62 UNL A   1      34.037  28.971  27.230  1.00  0.00    +0.000 C 
ATOM     87  C63 UNL A   1      33.418  30.202  27.230  1.00  0.00    +0.000 C 
ATOM     88  S1  UNL A   1      32.077  30.246  26.170  1.00  0.00    +0.000 S 
ATOM    125  H35 UNL A   1      33.702  27.076  26.212  1.00  0.00    +0.000 H 
ATOM    126  H36 UNL A   1      34.873  28.745  27.792  1.00  0.00    +0.000 H 
ATOM    127  H37 UNL A   1      33.727  31.002  27.803  1.00  0.00    +0.000 H 
ENDBRANCH   82   84
ENDBRANCH   81   82
ENDBRANCH    2   78
ENDBRANCH    3    2
ENDBRANCH    5    3
ENDBRANCH    6    5
ENDBRANCH    7    6
ENDBRANCH    8    7
ENDBRANCH    9    8
ENDBRANCH   10    9
ENDBRANCH   11   10
ENDBRANCH   12   11
ENDBRANCH   13   12
ENDBRANCH   15   13
ENDBRANCH   19   18
BRANCH   23   24
ATOM     33  C24 UNL A   1      37.802  31.049  29.673  1.00  0.00    +0.000 C 
ATOM     34  F5  UNL A   1      37.983  31.141  28.346  1.00  0.00    +0.000 F 
ATOM     24  C19 UNL A   1      38.830  30.571  30.497  1.00  0.00    +0.000 C 
ATOM     25  C20 UNL A   1      38.587  30.502  31.877  1.00  0.00    +0.000 C 
ATOM     26  F1  UNL A   1      39.534  30.038  32.706  1.00  0.00    +0.000 F 
ATOM     27  C21 UNL A   1      37.350  30.861  32.405  1.00  0.00    +0.000 C 
ATOM     28  F2  UNL A   1      37.122  30.733  33.720  1.00  0.00    +0.000 F 
ATOM     29  C22 UNL A   1      36.348  31.334  31.572  1.00  0.00    +0.000 C 
ATOM     30  F3  UNL A   1      35.157  31.679  32.081  1.00  0.00    +0.000 F 
ATOM     31  C23 UNL A   1      36.576  31.438  30.207  1.00  0.00    +0.000 C 
ATOM     32  F4  UNL A   1      35.611  31.903  29.402  1.00  0.00    +0.000 F 
ENDBRANCH   23   24
BRANCH   40   41
ATOM     41  C30 UNL A   1      45.446  33.289  29.604  1.00  0.00    +0.000 C 
ATOM     42  C31 UNL A   1      46.194  33.359  30.788  1.00  0.00    +0.000 C 
ATOM     43  F6  UNL A   1      46.194  32.328  31.648  1.00  0.00    +0.000 F 
ATOM     44  C32 UNL A   1      46.924  34.500  31.105  1.00  0.00    +0.000 C 
ATOM     45  F7  UNL A   1      47.607  34.560  32.256  1.00  0.00    +0.000 F 
ATOM     46  C33 UNL A   1      46.941  35.581  30.235  1.00  0.00    +0.000 C 
ATOM     47  F8  UNL A   1      47.653  36.675  30.536  1.00  0.00    +0.000 F 
ATOM     48  C34 UNL A   1      46.215  35.530  29.054  1.00  0.00    +0.000 C 
ATOM     49  F9  UNL A   1      46.239  36.568  28.207  1.00  0.00    +0.000 F 
ATOM     50  C35 UNL A   1      45.465  34.399  28.745  1.00  0.00    +0.000 C 
ATOM     51  F10 UNL A   1      44.769  34.378  27.600  1.00  0.00    +0.000 F 
ENDBRANCH   40   41
BRANCH   55   56
ATOM     65  C44 UNL A   1      48.349  27.001  26.803  1.00  0.00    +0.000 C 
ATOM     66  F15 UNL A   1      48.276  26.843  28.132  1.00  0.00    +0.000 F 
ATOM     56  C39 UNL A   1      47.265  27.542  26.099  1.00  0.00    +0.000 C 
ATOM     57  C40 UNL A   1      47.393  27.693  24.711  1.00  0.00    +0.000 C 
ATOM     58  F11 UNL A   1      46.375  28.190  23.996  1.00  0.00    +0.000 F 
ATOM     59  C41 UNL A   1      48.557  27.306  24.051  1.00  0.00    +0.000 C 
ATOM     60  F12 UNL A   1      48.644  27.432  22.720  1.00  0.00    +0.000 F 
ATOM     61  C42 UNL A   1      49.623  26.785  24.769  1.00  0.00    +0.000 C 
ATOM     62  F13 UNL A   1      50.747  26.422  24.136  1.00  0.00    +0.000 F 
ATOM     63  C43 UNL A   1      49.522  26.635  26.145  1.00  0.00    +0.000 C 
ATOM     64  F14 UNL A   1      50.555  26.144  26.843  1.00  0.00    +0.000 F 
ENDBRANCH   55   56
TORSDOF 19
ENDMDL
MODEL 6
REMARK VINA RESULT:      -9.9      2.650      7.744
ROOT
ATOM     19  C15 UNL A   1      39.675  28.823  29.571  1.00  0.00    +0.000 C 
ATOM     20  C16 UNL A   1      40.493  29.697  30.478  1.00  0.00    +0.000 C 
ATOM     21  N3  UNL A   1      41.739  29.565  30.857  1.00  0.00    +0.000 N 
ATOM     22  C17 UNL A   1      42.015  30.681  31.635  1.00  0.00    +0.000 C 
ATOM     23  C18 UNL A   1      43.157  30.988  32.295  1.00  0.00    +0.000 C 
ATOM     35  C25 UNL A   1      44.327  30.151  32.318  1.00  0.00    +0.000 C 
ATOM     36  C26 UNL A   1      45.512  30.343  33.006  1.00  0.00    +0.000 C 
ATOM     37  C27 UNL A   1      46.370  29.281  32.701  1.00  0.00    +0.000 C 
ATOM     38  C28 UNL A   1      45.704  28.408  31.856  1.00  0.00    +0.000 C 
ATOM     39  N4  UNL A   1      44.455  28.957  31.623  1.00  0.00    +0.000 N 
ATOM     40  C29 UNL A   1      46.173  27.163  31.302  1.00  0.00    +0.000 C 
ATOM     52  C36 UNL A   1      45.464  26.364  30.469  1.00  0.00    +0.000 C 
ATOM     53  N5  UNL A   1      44.173  26.534  29.987  1.00  0.00    +0.000 N 
ATOM     54  C37 UNL A   1      43.934  25.497  29.221  1.00  0.00    +0.000 C 
ATOM     55  C38 UNL A   1      42.683  25.148  28.461  1.00  0.00    +0.000 C 
ATOM     67  C45 UNL A   1      41.599  25.938  28.577  1.00  0.00    +0.000 C 
ATOM     68  C46 UNL A   1      40.323  25.732  27.897  1.00  0.00    +0.000 C 
ATOM     69  C47 UNL A   1      39.504  26.757  28.182  1.00  0.00    +0.000 C 
ATOM     70  C48 UNL A   1      40.186  27.672  29.097  1.00  0.00    +0.000 C 
ATOM     71  N6  UNL A   1      41.411  27.089  29.303  1.00  0.00    +0.000 N 
ATOM     72  C49 UNL A   1      45.063  24.564  29.104  1.00  0.00    +0.000 C 
ATOM     73  C50 UNL A   1      45.958  25.123  29.909  1.00  0.00    +0.000 C 
ATOM     74  C51 UNL A   1      40.821  31.499  31.642  1.00  0.00    +0.000 C 
ATOM     75  C52 UNL A   1      39.828  30.900  31.003  1.00  0.00    +0.000 C 
ATOM    111  H21 UNL A   1      45.726  31.131  33.636  1.00  0.00    +0.000 H 
ATOM    112  H22 UNL A   1      47.336  29.167  33.046  1.00  0.00    +0.000 H 
ATOM    113  H23 UNL A   1      43.760  28.561  31.049  1.00  0.00    +0.000 H 
ATOM    114  H24 UNL A   1      40.089  24.929  27.293  1.00  0.00    +0.000 H 
ATOM    115  H25 UNL A   1      38.547  26.879  27.815  1.00  0.00    +0.000 H 
ATOM    116  H26 UNL A   1      42.090  27.460  29.911  1.00  0.00    +0.000 H 
ATOM    117  H27 UNL A   1      45.141  23.701  28.544  1.00  0.00    +0.000 H 
ATOM    118  H28 UNL A   1      46.888  24.724  30.111  1.00  0.00    +0.000 H 
ATOM    119  H29 UNL A   1      40.753  32.428  32.086  1.00  0.00    +0.000 H 
ATOM    120  H30 UNL A   1      38.846  31.198  30.899  1.00  0.00    +0.000 H 
ENDROOT
BRANCH   19   18
ATOM     76  C53 UNL A   1      38.205  29.823  27.831  1.00  0.00    +0.000 C 
ATOM    109  H19 UNL A   1      35.141  29.589  30.115  1.00  0.00    +0.000 H 
ATOM     77  C54 UNL A   1      36.975  30.303  27.394  1.00  0.00    +0.000 C 
ATOM     15  C11 UNL A   1      35.846  30.164  28.208  1.00  0.00    +0.000 C 
ATOM     16  C12 UNL A   1      35.969  29.653  29.503  1.00  0.00    +0.000 C 
ATOM     17  C13 UNL A   1      37.217  29.228  29.964  1.00  0.00    +0.000 C 
ATOM    110  H20 UNL A   1      37.315  28.870  30.927  1.00  0.00    +0.000 H 
ATOM     18  C14 UNL A   1      38.339  29.286  29.121  1.00  0.00    +0.000 C 
ATOM    121  H31 UNL A   1      39.023  29.861  27.204  1.00  0.00    +0.000 H 
ATOM    122  H32 UNL A   1      36.895  30.761  26.472  1.00  0.00    +0.000 H 
BRANCH   15   13
ATOM     13  C10 UNL A   1      34.511  30.555  27.713  1.00  0.00    +0.000 C 
ATOM     14  O2  UNL A   1      34.027  31.634  28.041  1.00  0.00    +0.000 O 
BRANCH   13   12
ATOM    108  H18 UNL A   1      34.346  29.215  26.227  1.00  0.00    +0.000 H 
ATOM     12  N2  UNL A   1      33.812  29.695  26.901  1.00  0.00    +0.000 N 
BRANCH   12   11
ATOM    106  H16 UNL A   1      31.891  30.112  27.530  1.00  0.00    +0.000 H 
ATOM     11  C9  UNL A   1      32.388  29.399  26.906  1.00  0.00    +0.000 C 
ATOM    107  H17 UNL A   1      32.040  29.453  25.895  1.00  0.00    +0.000 H 
BRANCH   11   10
ATOM    105  H15 UNL A   1      31.031  27.948  27.572  1.00  0.00    +0.000 H 
ATOM     10  C8  UNL A   1      32.090  27.998  27.427  1.00  0.00    +0.000 C 
ATOM    104  H14 UNL A   1      32.646  27.854  28.330  1.00  0.00    +0.000 H 
BRANCH   10    9
ATOM      9  C7  UNL A   1      32.449  26.866  26.463  1.00  0.00    +0.000 C 
ATOM    102  H12 UNL A   1      32.569  27.287  25.487  1.00  0.00    +0.000 H 
ATOM    103  H13 UNL A   1      33.342  26.419  26.846  1.00  0.00    +0.000 H 
BRANCH    9    8
ATOM    100  H10 UNL A   1      30.623  25.964  27.057  1.00  0.00    +0.000 H 
ATOM    101  H11 UNL A   1      31.098  25.714  25.349  1.00  0.00    +0.000 H 
ATOM      8  C6  UNL A   1      31.414  25.742  26.371  1.00  0.00    +0.000 C 
BRANCH    8    7
ATOM     98  H8  UNL A   1      33.000  24.338  26.566  1.00  0.00    +0.000 H 
ATOM     99  H9  UNL A   1      31.635  24.123  27.697  1.00  0.00    +0.000 H 
ATOM      7  C5  UNL A   1      31.938  24.336  26.692  1.00  0.00    +0.000 C 
BRANCH    7    6
ATOM     97  H7  UNL A   1      30.295  23.364  25.739  1.00  0.00    +0.000 H 
ATOM      6  C4  UNL A   1      31.353  23.221  25.817  1.00  0.00    +0.000 C 
ATOM     96  H6  UNL A   1      31.568  22.273  26.265  1.00  0.00    +0.000 H 
BRANCH    6    5
ATOM      5  N1  UNL A   1      31.926  23.257  24.485  1.00  0.00    +0.000 N 
ATOM     95  H5  UNL A   1      32.799  22.817  24.373  1.00  0.00    +0.000 H 
BRANCH    5    3
ATOM      3  C3  UNL A   1      31.391  23.834  23.364  1.00  0.00    +0.000 C 
ATOM      4  O1  UNL A   1      30.312  23.388  22.970  1.00  0.00    +0.000 O 
BRANCH    3    2
ATOM      2  C2  UNL A   1      32.165  24.955  22.643  1.00  0.00    +0.000 C 
ATOM     94  H4  UNL A   1      32.096  24.788  21.588  1.00  0.00    +0.000 H 
BRANCH    2    1
ATOM      1  C1  UNL A   1      33.636  24.891  23.075  1.00  0.00    +0.000 C 
ATOM     91  H1  UNL A   1      33.727  24.266  23.939  1.00  0.00    +0.000 H 
ATOM     92  H2  UNL A   1      33.982  25.875  23.311  1.00  0.00    +0.000 H 
ATOM     93  H3  UNL A   1      34.225  24.487  22.279  1.00  0.00    +0.000 H 
ENDBRANCH    2    1
BRANCH    2   78
ATOM    129  H39 UNL A   1      29.590  25.678  23.228  1.00  0.00    +0.000 H 
ATOM     78  C55 UNL A   1      31.551  26.353  22.836  1.00  0.00    +0.000 C 
ATOM     79  C56 UNL A   1      32.309  27.521  22.646  1.00  0.00    +0.000 C 
ATOM     80  C57 UNL A   1      31.760  28.788  22.872  1.00  0.00    +0.000 C 
ATOM     81  C58 UNL A   1      30.428  28.927  23.276  1.00  0.00    +0.000 C 
ATOM     89  C64 UNL A   1      29.639  27.779  23.387  1.00  0.00    +0.000 C 
ATOM     90  C65 UNL A   1      30.193  26.513  23.158  1.00  0.00    +0.000 C 
ATOM    123  H33 UNL A   1      33.290  27.443  22.334  1.00  0.00    +0.000 H 
ATOM    124  H34 UNL A   1      32.344  29.628  22.739  1.00  0.00    +0.000 H 
ATOM    128  H38 UNL A   1      28.642  27.865  23.641  1.00  0.00    +0.000 H 
BRANCH   81   82
ATOM     82  C59 UNL A   1      29.897  30.307  23.520  1.00  0.00    +0.000 C 
ATOM     83  O3  UNL A   1      30.146  30.837  24.602  1.00  0.00    +0.000 O 
BRANCH   82   84
ATOM     84  C60 UNL A   1      29.126  30.968  22.482  1.00  0.00    +0.000 C 
ATOM     85  C61 UNL A   1      28.616  30.460  21.301  1.00  0.00    +0.000 C 
ATOM     86  C62 UNL A   1      27.936  31.455  20.538  1.00  0.00    +0.000 C 
ATOM     87  C63 UNL A   1      27.936  32.679  21.170  1.00  0.00    +0.000 C 
ATOM     88  S1  UNL A   1      28.729  32.621  22.683  1.00  0.00    +0.000 S 
ATOM    125  H35 UNL A   1      28.716  29.477  21.007  1.00  0.00    +0.000 H 
ATOM    126  H36 UNL A   1      27.495  31.279  19.622  1.00  0.00    +0.000 H 
ATOM    127  H37 UNL A   1      27.507  33.531  20.776  1.00  0.00    +0.000 H 
ENDBRANCH   82   84
ENDBRANCH   81   82
ENDBRANCH    2   78
ENDBRANCH    3    2
ENDBRANCH    5    3
ENDBRANCH    6    5
ENDBRANCH    7    6
ENDBRANCH    8    7
ENDBRANCH    9    8
ENDBRANCH   10    9
ENDBRANCH   11   10
ENDBRANCH   12   11
ENDBRANCH   13   12
ENDBRANCH   15   13
ENDBRANCH   19   18
BRANCH   23   24
ATOM     33  C24 UNL A   1      43.643  33.457  32.412  1.00  0.00    +0.000 C 
ATOM     34  F5  UNL A   1      44.045  33.425  31.132  1.00  0.00    +0.000 F 
ATOM     24  C19 UNL A   1      43.191  32.289  33.042  1.00  0.00    +0.000 C 
ATOM     25  C20 UNL A   1      42.788  32.380  34.384  1.00  0.00    +0.000 C 
ATOM     26  F1  UNL A   1      42.335  31.293  35.027  1.00  0.00    +0.000 F 
ATOM     27  C21 UNL A   1      42.801  33.600  35.054  1.00  0.00    +0.000 C 
ATOM     28  F2  UNL A   1      42.357  33.673  36.316  1.00  0.00    +0.000 F 
ATOM     29  C22 UNL A   1      43.253  34.742  34.411  1.00  0.00    +0.000 C 
ATOM     30  F3  UNL A   1      43.264  35.917  35.057  1.00  0.00    +0.000 F 
ATOM     31  C23 UNL A   1      43.683  34.671  33.095  1.00  0.00    +0.000 C 
ATOM     32  F4  UNL A   1      44.129  35.772  32.476  1.00  0.00    +0.000 F 
ENDBRANCH   23   24
BRANCH   40   41
ATOM     41  C30 UNL A   1      47.543  26.702  31.699  1.00  0.00    +0.000 C 
ATOM     42  C31 UNL A   1      48.691  27.139  31.022  1.00  0.00    +0.000 C 
ATOM     43  F6  UNL A   1      48.579  27.933  29.946  1.00  0.00    +0.000 F 
ATOM     44  C32 UNL A   1      49.958  26.737  31.433  1.00  0.00    +0.000 C 
ATOM     45  F7  UNL A   1      51.041  27.138  30.753  1.00  0.00    +0.000 F 
ATOM     46  C33 UNL A   1      50.104  25.915  32.541  1.00  0.00    +0.000 C 
ATOM     47  F8  UNL A   1      51.325  25.538  32.942  1.00  0.00    +0.000 F 
ATOM     48  C34 UNL A   1      48.982  25.479  33.231  1.00  0.00    +0.000 C 
ATOM     49  F9  UNL A   1      49.121  24.694  34.309  1.00  0.00    +0.000 F 
ATOM     50  C35 UNL A   1      47.712  25.860  32.808  1.00  0.00    +0.000 C 
ATOM     51  F10 UNL A   1      46.645  25.421  33.491  1.00  0.00    +0.000 F 
ENDBRANCH   40   41
BRANCH   55   56
ATOM     65  C44 UNL A   1      42.231  22.691  28.145  1.00  0.00    +0.000 C 
ATOM     66  F15 UNL A   1      41.894  22.590  29.439  1.00  0.00    +0.000 F 
ATOM     56  C39 UNL A   1      42.618  23.930  27.615  1.00  0.00    +0.000 C 
ATOM     57  C40 UNL A   1      42.967  23.982  26.259  1.00  0.00    +0.000 C 
ATOM     58  F11 UNL A   1      43.326  25.148  25.705  1.00  0.00    +0.000 F 
ATOM     59  C41 UNL A   1      42.921  22.841  25.461  1.00  0.00    +0.000 C 
ATOM     60  F12 UNL A   1      43.231  22.923  24.160  1.00  0.00    +0.000 F 
ATOM     61  C42 UNL A   1      42.548  21.623  26.009  1.00  0.00    +0.000 C 
ATOM     62  F13 UNL A   1      42.513  20.524  25.244  1.00  0.00    +0.000 F 
ATOM     63  C43 UNL A   1      42.207  21.546  27.351  1.00  0.00    +0.000 C 
ATOM     64  F14 UNL A   1      41.859  20.368  27.888  1.00  0.00    +0.000 F 
ENDBRANCH   55   56
TORSDOF 19
ENDMDL
MODEL 7
REMARK VINA RESULT:      -9.9     18.863     26.922
ROOT
ATOM     19  C15 UNL A   1      25.872  39.259  46.587  1.00  0.00    +0.000 C 
ATOM     20  C16 UNL A   1      24.980  40.290  47.218  1.00  0.00    +0.000 C 
ATOM     21  N3  UNL A   1      23.760  40.166  47.674  1.00  0.00    +0.000 N 
ATOM     22  C17 UNL A   1      23.433  41.402  48.214  1.00  0.00    +0.000 C 
ATOM     23  C18 UNL A   1      22.264  41.798  48.770  1.00  0.00    +0.000 C 
ATOM     35  C25 UNL A   1      21.098  40.962  48.879  1.00  0.00    +0.000 C 
ATOM     36  C26 UNL A   1      19.845  41.287  49.371  1.00  0.00    +0.000 C 
ATOM     37  C27 UNL A   1      19.040  40.145  49.304  1.00  0.00    +0.000 C 
ATOM     38  C28 UNL A   1      19.779  39.121  48.732  1.00  0.00    +0.000 C 
ATOM     39  N4  UNL A   1      21.041  39.634  48.484  1.00  0.00    +0.000 N 
ATOM     40  C29 UNL A   1      19.363  37.774  48.434  1.00  0.00    +0.000 C 
ATOM     52  C36 UNL A   1      20.150  36.819  47.881  1.00  0.00    +0.000 C 
ATOM     53  N5  UNL A   1      21.474  36.910  47.473  1.00  0.00    +0.000 N 
ATOM     54  C37 UNL A   1      21.788  35.727  47.003  1.00  0.00    +0.000 C 
ATOM     55  C38 UNL A   1      23.086  35.260  46.401  1.00  0.00    +0.000 C 
ATOM     67  C45 UNL A   1      24.094  36.138  46.245  1.00  0.00    +0.000 C 
ATOM     68  C46 UNL A   1      25.409  35.830  45.688  1.00  0.00    +0.000 C 
ATOM     69  C47 UNL A   1      26.183  36.924  45.762  1.00  0.00    +0.000 C 
ATOM     70  C48 UNL A   1      25.406  38.022  46.338  1.00  0.00    +0.000 C 
ATOM     71  N6  UNL A   1      24.168  37.472  46.563  1.00  0.00    +0.000 N 
ATOM     72  C49 UNL A   1      20.704  34.739  47.090  1.00  0.00    +0.000 C 
ATOM     73  C50 UNL A   1      19.719  35.465  47.603  1.00  0.00    +0.000 C 
ATOM     74  C51 UNL A   1      24.596  42.251  48.063  1.00  0.00    +0.000 C 
ATOM     75  C52 UNL A   1      25.553  41.634  47.388  1.00  0.00    +0.000 C 
ATOM    111  H21 UNL A   1      19.555  42.212  49.726  1.00  0.00    +0.000 H 
ATOM    112  H22 UNL A   1      18.063  40.076  49.626  1.00  0.00    +0.000 H 
ATOM    113  H23 UNL A   1      21.788  39.131  48.086  1.00  0.00    +0.000 H 
ATOM    114  H24 UNL A   1      25.696  34.918  45.300  1.00  0.00    +0.000 H 
ATOM    115  H25 UNL A   1      27.169  36.982  45.461  1.00  0.00    +0.000 H 
ATOM    116  H26 UNL A   1      23.407  37.985  46.919  1.00  0.00    +0.000 H 
ATOM    117  H27 UNL A   1      20.707  33.742  46.823  1.00  0.00    +0.000 H 
ATOM    118  H28 UNL A   1      18.766  35.110  47.781  1.00  0.00    +0.000 H 
ATOM    119  H29 UNL A   1      24.669  43.211  48.434  1.00  0.00    +0.000 H 
ATOM    120  H30 UNL A   1      26.463  42.000  47.066  1.00  0.00    +0.000 H 
ENDROOT
BRANCH   19   18
ATOM     76  C53 UNL A   1      27.645  40.207  45.122  1.00  0.00    +0.000 C 
ATOM    109  H19 UNL A   1      30.371  39.371  47.678  1.00  0.00    +0.000 H 
ATOM     77  C54 UNL A   1      28.976  40.487  44.834  1.00  0.00    +0.000 C 
ATOM     15  C11 UNL A   1      29.962  40.233  45.793  1.00  0.00    +0.000 C 
ATOM     16  C12 UNL A   1      29.634  39.594  46.990  1.00  0.00    +0.000 C 
ATOM     17  C13 UNL A   1      28.304  39.255  47.253  1.00  0.00    +0.000 C 
ATOM    110  H20 UNL A   1      28.062  38.763  48.127  1.00  0.00    +0.000 H 
ATOM     18  C14 UNL A   1      27.297  39.583  46.331  1.00  0.00    +0.000 C 
ATOM    121  H31 UNL A   1      26.909  40.458  44.445  1.00  0.00    +0.000 H 
ATOM    122  H32 UNL A   1      29.236  40.881  43.916  1.00  0.00    +0.000 H 
BRANCH   15   13
ATOM     13  C10 UNL A   1      31.363  40.639  45.554  1.00  0.00    +0.000 C 
ATOM     14  O2  UNL A   1      31.722  41.783  45.815  1.00  0.00    +0.000 O 
BRANCH   13   12
ATOM    108  H18 UNL A   1      32.644  39.097  45.661  1.00  0.00    +0.000 H 
ATOM     12  N2  UNL A   1      32.248  39.733  45.022  1.00  0.00    +0.000 N 
BRANCH   12   11
ATOM    106  H16 UNL A   1      33.057  40.530  43.299  1.00  0.00    +0.000 H 
ATOM     11  C9  UNL A   1      32.677  39.589  43.640  1.00  0.00    +0.000 C 
ATOM    107  H17 UNL A   1      33.429  38.829  43.610  1.00  0.00    +0.000 H 
BRANCH   11   10
ATOM    105  H15 UNL A   1      30.770  39.893  42.827  1.00  0.00    +0.000 H 
ATOM     10  C8  UNL A   1      31.540  39.157  42.723  1.00  0.00    +0.000 C 
ATOM    104  H14 UNL A   1      31.228  38.176  43.018  1.00  0.00    +0.000 H 
BRANCH   10    9
ATOM      9  C7  UNL A   1      31.898  39.113  41.236  1.00  0.00    +0.000 C 
ATOM    102  H12 UNL A   1      31.514  40.000  40.777  1.00  0.00    +0.000 H 
ATOM    103  H13 UNL A   1      32.963  39.036  41.188  1.00  0.00    +0.000 H 
BRANCH    9    8
ATOM    100  H10 UNL A   1      30.483  37.551  40.996  1.00  0.00    +0.000 H 
ATOM    101  H11 UNL A   1      31.134  38.255  39.483  1.00  0.00    +0.000 H 
ATOM      8  C6  UNL A   1      31.346  37.907  40.472  1.00  0.00    +0.000 C 
BRANCH    8    7
ATOM     98  H8  UNL A   1      32.473  36.568  39.264  1.00  0.00    +0.000 H 
ATOM     99  H9  UNL A   1      33.213  37.003  40.829  1.00  0.00    +0.000 H 
ATOM      7  C5  UNL A   1      32.318  36.730  40.309  1.00  0.00    +0.000 C 
BRANCH    7    6
ATOM     97  H7  UNL A   1      32.683  34.894  41.332  1.00  0.00    +0.000 H 
ATOM      6  C4  UNL A   1      31.837  35.414  40.933  1.00  0.00    +0.000 C 
ATOM     96  H6  UNL A   1      31.360  34.823  40.179  1.00  0.00    +0.000 H 
BRANCH    6    5
ATOM      5  N1  UNL A   1      30.896  35.666  42.007  1.00  0.00    +0.000 N 
ATOM     95  H5  UNL A   1      30.792  36.605  42.285  1.00  0.00    +0.000 H 
BRANCH    5    3
ATOM      3  C3  UNL A   1      30.135  34.748  42.679  1.00  0.00    +0.000 C 
ATOM      4  O1  UNL A   1      30.378  33.559  42.466  1.00  0.00    +0.000 O 
BRANCH    3    2
ATOM      2  C2  UNL A   1      29.009  35.234  43.615  1.00  0.00    +0.000 C 
ATOM     94  H4  UNL A   1      28.087  35.207  43.075  1.00  0.00    +0.000 H 
BRANCH    2    1
ATOM      1  C1  UNL A   1      29.313  36.677  44.038  1.00  0.00    +0.000 C 
ATOM     91  H1  UNL A   1      28.532  37.034  44.677  1.00  0.00    +0.000 H 
ATOM     92  H2  UNL A   1      29.372  37.298  43.169  1.00  0.00    +0.000 H 
ATOM     93  H3  UNL A   1      30.244  36.707  44.562  1.00  0.00    +0.000 H 
ENDBRANCH    2    1
BRANCH    2   78
ATOM    129  H39 UNL A   1      27.281  33.127  43.880  1.00  0.00    +0.000 H 
ATOM     78  C55 UNL A   1      28.761  34.305  44.816  1.00  0.00    +0.000 C 
ATOM     79  C56 UNL A   1      29.410  34.504  46.046  1.00  0.00    +0.000 C 
ATOM     80  C57 UNL A   1      29.219  33.627  47.120  1.00  0.00    +0.000 C 
ATOM     81  C58 UNL A   1      28.355  32.534  47.003  1.00  0.00    +0.000 C 
ATOM     89  C64 UNL A   1      27.638  32.372  45.814  1.00  0.00    +0.000 C 
ATOM     90  C65 UNL A   1      27.832  33.253  44.743  1.00  0.00    +0.000 C 
ATOM    123  H33 UNL A   1      30.041  35.313  46.160  1.00  0.00    +0.000 H 
ATOM    124  H34 UNL A   1      29.721  33.789  48.007  1.00  0.00    +0.000 H 
ATOM    128  H38 UNL A   1      26.963  31.596  45.725  1.00  0.00    +0.000 H 
BRANCH   81   82
ATOM     82  C59 UNL A   1      28.201  31.618  48.179  1.00  0.00    +0.000 C 
ATOM     83  O3  UNL A   1      27.849  32.110  49.250  1.00  0.00    +0.000 O 
BRANCH   82   84
ATOM     84  C60 UNL A   1      28.457  30.199  48.014  1.00  0.00    +0.000 C 
ATOM     85  C61 UNL A   1      27.623  29.197  47.554  1.00  0.00    +0.000 C 
ATOM     86  C62 UNL A   1      28.255  27.918  47.573  1.00  0.00    +0.000 C 
ATOM     87  C63 UNL A   1      29.553  27.992  48.030  1.00  0.00    +0.000 C 
ATOM     88  S1  UNL A   1      30.010  29.596  48.409  1.00  0.00    +0.000 S 
ATOM    125  H35 UNL A   1      26.655  29.356  47.234  1.00  0.00    +0.000 H 
ATOM    126  H36 UNL A   1      27.796  27.042  47.280  1.00  0.00    +0.000 H 
ATOM    127  H37 UNL A   1      30.175  27.176  48.132  1.00  0.00    +0.000 H 
ENDBRANCH   82   84
ENDBRANCH   81   82
ENDBRANCH    2   78
ENDBRANCH    3    2
ENDBRANCH    5    3
ENDBRANCH    6    5
ENDBRANCH    7    6
ENDBRANCH    8    7
ENDBRANCH    9    8
ENDBRANCH   10    9
ENDBRANCH   11   10
ENDBRANCH   12   11
ENDBRANCH   13   12
ENDBRANCH   15   13
ENDBRANCH   19   18
BRANCH   23   24
ATOM     33  C24 UNL A   1      22.508  43.459  50.648  1.00  0.00    +0.000 C 
ATOM     34  F5  UNL A   1      22.877  42.460  51.465  1.00  0.00    +0.000 F 
ATOM     24  C19 UNL A   1      22.195  43.198  49.307  1.00  0.00    +0.000 C 
ATOM     25  C20 UNL A   1      21.811  44.279  48.499  1.00  0.00    +0.000 C 
ATOM     26  F1  UNL A   1      21.515  44.082  47.205  1.00  0.00    +0.000 F 
ATOM     27  C21 UNL A   1      21.779  45.576  49.005  1.00  0.00    +0.000 C 
ATOM     28  F2  UNL A   1      21.465  46.599  48.200  1.00  0.00    +0.000 F 
ATOM     29  C22 UNL A   1      22.091  45.810  50.336  1.00  0.00    +0.000 C 
ATOM     30  F3  UNL A   1      22.061  47.059  50.822  1.00  0.00    +0.000 F 
ATOM     31  C23 UNL A   1      22.446  44.753  51.160  1.00  0.00    +0.000 C 
ATOM     32  F4  UNL A   1      22.738  44.978  52.448  1.00  0.00    +0.000 F 
ENDBRANCH   23   24
BRANCH   40   41
ATOM     41  C30 UNL A   1      17.941  37.406  48.735  1.00  0.00    +0.000 C 
ATOM     42  C31 UNL A   1      17.468  37.317  50.052  1.00  0.00    +0.000 C 
ATOM     43  F6  UNL A   1      18.307  37.492  51.085  1.00  0.00    +0.000 F 
ATOM     44  C32 UNL A   1      16.133  37.020  50.311  1.00  0.00    +0.000 C 
ATOM     45  F7  UNL A   1      15.707  36.907  51.577  1.00  0.00    +0.000 F 
ATOM     46  C33 UNL A   1      15.244  36.833  49.263  1.00  0.00    +0.000 C 
ATOM     47  F8  UNL A   1      13.957  36.557  49.514  1.00  0.00    +0.000 F 
ATOM     48  C34 UNL A   1      15.690  36.926  47.953  1.00  0.00    +0.000 C 
ATOM     49  F9  UNL A   1      14.830  36.757  46.939  1.00  0.00    +0.000 F 
ATOM     50  C35 UNL A   1      17.029  37.200  47.690  1.00  0.00    +0.000 C 
ATOM     51  F10 UNL A   1      17.434  37.280  46.414  1.00  0.00    +0.000 F 
ENDBRANCH   40   41
BRANCH   55   56
ATOM     65  C44 UNL A   1      24.006  32.934  46.690  1.00  0.00    +0.000 C 
ATOM     66  F15 UNL A   1      24.574  33.306  47.847  1.00  0.00    +0.000 F 
ATOM     56  C39 UNL A   1      23.257  33.857  45.948  1.00  0.00    +0.000 C 
ATOM     57  C40 UNL A   1      22.689  33.421  44.742  1.00  0.00    +0.000 C 
ATOM     58  F11 UNL A   1      21.950  34.264  44.008  1.00  0.00    +0.000 F 
ATOM     59  C41 UNL A   1      22.855  32.110  44.302  1.00  0.00    +0.000 C 
ATOM     60  F12 UNL A   1      22.277  31.710  43.162  1.00  0.00    +0.000 F 
ATOM     61  C42 UNL A   1      23.612  31.217  45.047  1.00  0.00    +0.000 C 
ATOM     62  F13 UNL A   1      23.780  29.958  44.619  1.00  0.00    +0.000 F 
ATOM     63  C43 UNL A   1      24.190  31.629  46.239  1.00  0.00    +0.000 C 
ATOM     64  F14 UNL A   1      24.933  30.773  46.953  1.00  0.00    +0.000 F 
ENDBRANCH   55   56
TORSDOF 19
ENDMDL
MODEL 8
REMARK VINA RESULT:      -9.9     37.994     43.425
ROOT
ATOM     19  C15 UNL A   1      29.260 -14.038  30.808  1.00  0.00    +0.000 C 
ATOM     20  C16 UNL A   1      29.009 -14.137  32.286  1.00  0.00    +0.000 C 
ATOM     21  N3  UNL A   1      27.971 -13.745  32.980  1.00  0.00    +0.000 N 
ATOM     22  C17 UNL A   1      28.222 -14.140  34.287  1.00  0.00    +0.000 C 
ATOM     23  C18 UNL A   1      27.469 -13.928  35.392  1.00  0.00    +0.000 C 
ATOM     35  C25 UNL A   1      26.229 -13.200  35.397  1.00  0.00    +0.000 C 
ATOM     36  C26 UNL A   1      25.421 -12.877  36.473  1.00  0.00    +0.000 C 
ATOM     37  C27 UNL A   1      24.305 -12.186  35.990  1.00  0.00    +0.000 C 
ATOM     38  C28 UNL A   1      24.439 -12.042  34.618  1.00  0.00    +0.000 C 
ATOM     39  N4  UNL A   1      25.619 -12.675  34.267  1.00  0.00    +0.000 N 
ATOM     40  C29 UNL A   1      23.555 -11.377  33.696  1.00  0.00    +0.000 C 
ATOM     52  C36 UNL A   1      23.748 -11.286  32.357  1.00  0.00    +0.000 C 
ATOM     53  N5  UNL A   1      24.800 -11.773  31.593  1.00  0.00    +0.000 N 
ATOM     54  C37 UNL A   1      24.535 -11.432  30.356  1.00  0.00    +0.000 C 
ATOM     55  C38 UNL A   1      25.345 -11.677  29.111  1.00  0.00    +0.000 C 
ATOM     67  C45 UNL A   1      26.545 -12.279  29.213  1.00  0.00    +0.000 C 
ATOM     68  C46 UNL A   1      27.435 -12.589  28.098  1.00  0.00    +0.000 C 
ATOM     69  C47 UNL A   1      28.501 -13.262  28.562  1.00  0.00    +0.000 C 
ATOM     70  C48 UNL A   1      28.386 -13.395  30.014  1.00  0.00    +0.000 C 
ATOM     71  N6  UNL A   1      27.211 -12.753  30.317  1.00  0.00    +0.000 N 
ATOM     72  C49 UNL A   1      23.263 -10.715  30.189  1.00  0.00    +0.000 C 
ATOM     73  C50 UNL A   1      22.839 -10.625  31.443  1.00  0.00    +0.000 C 
ATOM     74  C51 UNL A   1      29.492 -14.836  34.283  1.00  0.00    +0.000 C 
ATOM     75  C52 UNL A   1      30.054 -14.797  33.084  1.00  0.00    +0.000 C 
ATOM    111  H21 UNL A   1      25.608 -13.106  37.462  1.00  0.00    +0.000 H 
ATOM    112  H22 UNL A   1      23.515 -11.842  36.558  1.00  0.00    +0.000 H 
ATOM    113  H23 UNL A   1      25.974 -12.744  33.350  1.00  0.00    +0.000 H 
ATOM    114  H24 UNL A   1      27.271 -12.334  27.111  1.00  0.00    +0.000 H 
ATOM    115  H25 UNL A   1      29.277 -13.626  27.986  1.00  0.00    +0.000 H 
ATOM    116  H26 UNL A   1      26.877 -12.644  31.236  1.00  0.00    +0.000 H 
ATOM    117  H27 UNL A   1      22.816 -10.372  29.324  1.00  0.00    +0.000 H 
ATOM    118  H28 UNL A   1      21.973 -10.144  31.731  1.00  0.00    +0.000 H 
ATOM    119  H29 UNL A   1      29.904 -15.301  35.106  1.00  0.00    +0.000 H 
ATOM    120  H30 UNL A   1      30.981 -15.140  32.788  1.00  0.00    +0.000 H 
ENDROOT
BRANCH   19   18
ATOM     76  C53 UNL A   1      31.599 -14.007  29.960  1.00  0.00    +0.000 C 
ATOM    109  H19 UNL A   1      31.471 -17.741  29.123  1.00  0.00    +0.000 H 
ATOM     77  C54 UNL A   1      32.696 -14.624  29.369  1.00  0.00    +0.000 C 
ATOM     15  C11 UNL A   1      32.667 -15.999  29.117  1.00  0.00    +0.000 C 
ATOM     16  C12 UNL A   1      31.502 -16.734  29.348  1.00  0.00    +0.000 C 
ATOM     17  C13 UNL A   1      30.378 -16.101  29.884  1.00  0.00    +0.000 C 
ATOM    110  H20 UNL A   1      29.509 -16.636  30.034  1.00  0.00    +0.000 H 
ATOM     18  C14 UNL A   1      30.428 -14.738  30.218  1.00  0.00    +0.000 C 
ATOM    121  H31 UNL A   1      31.644 -13.008  30.210  1.00  0.00    +0.000 H 
ATOM    122  H32 UNL A   1      33.529 -14.069  29.117  1.00  0.00    +0.000 H 
BRANCH   15   13
ATOM     13  C10 UNL A   1      33.867 -16.694  28.606  1.00  0.00    +0.000 C 
ATOM     14  O2  UNL A   1      34.607 -17.289  29.383  1.00  0.00    +0.000 O 
BRANCH   13   12
ATOM    108  H18 UNL A   1      35.093 -16.464  27.033  1.00  0.00    +0.000 H 
ATOM     12  N2  UNL A   1      34.154 -16.649  27.264  1.00  0.00    +0.000 N 
BRANCH   12   11
ATOM    106  H16 UNL A   1      33.788 -17.337  25.352  1.00  0.00    +0.000 H 
ATOM     11  C9  UNL A   1      33.254 -16.840  26.137  1.00  0.00    +0.000 C 
ATOM    107  H17 UNL A   1      32.425 -17.424  26.477  1.00  0.00    +0.000 H 
BRANCH   11   10
ATOM    105  H15 UNL A   1      32.731 -15.597  24.534  1.00  0.00    +0.000 H 
ATOM     10  C8  UNL A   1      32.709 -15.522  25.601  1.00  0.00    +0.000 C 
ATOM    104  H14 UNL A   1      33.321 -14.730  25.980  1.00  0.00    +0.000 H 
BRANCH   10    9
ATOM      9  C7  UNL A   1      31.258 -15.226  25.985  1.00  0.00    +0.000 C 
ATOM    102  H12 UNL A   1      30.632 -15.933  25.483  1.00  0.00    +0.000 H 
ATOM    103  H13 UNL A   1      31.211 -15.298  27.051  1.00  0.00    +0.000 H 
BRANCH    9    8
ATOM    100  H10 UNL A   1      30.379 -13.850  24.631  1.00  0.00    +0.000 H 
ATOM    101  H11 UNL A   1      30.036 -13.567  26.366  1.00  0.00    +0.000 H 
ATOM      8  C6  UNL A   1      30.768 -13.821  25.628  1.00  0.00    +0.000 C 
BRANCH    8    7
ATOM     98  H8  UNL A   1      32.315 -12.770  26.641  1.00  0.00    +0.000 H 
ATOM     99  H9  UNL A   1      32.500 -12.895  24.870  1.00  0.00    +0.000 H 
ATOM      7  C5  UNL A   1      31.832 -12.717  25.688  1.00  0.00    +0.000 C 
BRANCH    7    6
ATOM     97  H7  UNL A   1      30.519 -11.125  26.227  1.00  0.00    +0.000 H 
ATOM      6  C4  UNL A   1      31.289 -11.295  25.504  1.00  0.00    +0.000 C 
ATOM     96  H6  UNL A   1      30.896 -11.195  24.513  1.00  0.00    +0.000 H 
BRANCH    6    5
ATOM      5  N1  UNL A   1      32.337 -10.313  25.702  1.00  0.00    +0.000 N 
ATOM     95  H5  UNL A   1      32.749  -9.944  24.887  1.00  0.00    +0.000 H 
BRANCH    5    3
ATOM      3  C3  UNL A   1      32.820  -9.839  26.892  1.00  0.00    +0.000 C 
ATOM      4  O1  UNL A   1      33.593 -10.572  27.511  1.00  0.00    +0.000 O 
BRANCH    3    2
ATOM      2  C2  UNL A   1      32.351  -8.463  27.408  1.00  0.00    +0.000 C 
ATOM     94  H4  UNL A   1      32.142  -7.840  26.565  1.00  0.00    +0.000 H 
BRANCH    2    1
ATOM      1  C1  UNL A   1      33.483  -7.840  28.236  1.00  0.00    +0.000 C 
ATOM     91  H1  UNL A   1      33.146  -7.679  29.239  1.00  0.00    +0.000 H 
ATOM     92  H2  UNL A   1      33.769  -6.904  27.803  1.00  0.00    +0.000 H 
ATOM     93  H3  UNL A   1      34.324  -8.501  28.245  1.00  0.00    +0.000 H 
ENDBRANCH    2    1
BRANCH    2   78
ATOM    129  H39 UNL A   1      31.119 -10.563  28.660  1.00  0.00    +0.000 H 
ATOM     78  C55 UNL A   1      31.017  -8.512  28.172  1.00  0.00    +0.000 C 
ATOM     79  C56 UNL A   1      30.176  -7.390  28.256  1.00  0.00    +0.000 C 
ATOM     80  C57 UNL A   1      28.987  -7.425  28.994  1.00  0.00    +0.000 C 
ATOM     81  C58 UNL A   1      28.592  -8.592  29.654  1.00  0.00    +0.000 C 
ATOM     89  C64 UNL A   1      29.376  -9.741  29.511  1.00  0.00    +0.000 C 
ATOM     90  C65 UNL A   1      30.564  -9.700  28.769  1.00  0.00    +0.000 C 
ATOM    123  H33 UNL A   1      30.440  -6.521  27.764  1.00  0.00    +0.000 H 
ATOM    124  H34 UNL A   1      28.397  -6.580  29.051  1.00  0.00    +0.000 H 
ATOM    128  H38 UNL A   1      29.077 -10.623  29.954  1.00  0.00    +0.000 H 
BRANCH   81   82
ATOM     82  C59 UNL A   1      27.319  -8.568  30.444  1.00  0.00    +0.000 C 
ATOM     83  O3  UNL A   1      26.307  -8.135  29.893  1.00  0.00    +0.000 O 
BRANCH   82   84
ATOM     84  C60 UNL A   1      27.318  -9.060  31.809  1.00  0.00    +0.000 C 
ATOM     85  C61 UNL A   1      28.167  -9.962  32.425  1.00  0.00    +0.000 C 
ATOM     86  C62 UNL A   1      27.804 -10.200  33.784  1.00  0.00    +0.000 C 
ATOM     87  C63 UNL A   1      26.704  -9.462  34.161  1.00  0.00    +0.000 C 
ATOM     88  S1  UNL A   1      26.130  -8.470  32.892  1.00  0.00    +0.000 S 
ATOM    125  H35 UNL A   1      28.969 -10.409  31.956  1.00  0.00    +0.000 H 
ATOM    126  H36 UNL A   1      28.306 -10.849  34.410  1.00  0.00    +0.000 H 
ATOM    127  H37 UNL A   1      26.277  -9.502  35.099  1.00  0.00    +0.000 H 
ENDBRANCH   82   84
ENDBRANCH   81   82
ENDBRANCH    2   78
ENDBRANCH    3    2
ENDBRANCH    5    3
ENDBRANCH    6    5
ENDBRANCH    7    6
ENDBRANCH    8    7
ENDBRANCH    9    8
ENDBRANCH   10    9
ENDBRANCH   11   10
ENDBRANCH   12   11
ENDBRANCH   13   12
ENDBRANCH   15   13
ENDBRANCH   19   18
BRANCH   23   24
ATOM     33  C24 UNL A   1      27.535 -15.756  37.124  1.00  0.00    +0.000 C 
ATOM     34  F5  UNL A   1      26.667 -16.467  36.387  1.00  0.00    +0.000 F 
ATOM     24  C19 UNL A   1      27.971 -14.498  36.687  1.00  0.00    +0.000 C 
ATOM     25  C20 UNL A   1      28.875 -13.797  37.500  1.00  0.00    +0.000 C 
ATOM     26  F1  UNL A   1      29.332 -12.594  37.119  1.00  0.00    +0.000 F 
ATOM     27  C21 UNL A   1      29.351 -14.352  38.685  1.00  0.00    +0.000 C 
ATOM     28  F2  UNL A   1      30.257 -13.688  39.416  1.00  0.00    +0.000 F 
ATOM     29  C22 UNL A   1      28.905 -15.597  39.098  1.00  0.00    +0.000 C 
ATOM     30  F3  UNL A   1      29.365 -16.131  40.239  1.00  0.00    +0.000 F 
ATOM     31  C23 UNL A   1      27.990 -16.296  38.325  1.00  0.00    +0.000 C 
ATOM     32  F4  UNL A   1      27.550 -17.496  38.728  1.00  0.00    +0.000 F 
ENDBRANCH   23   24
BRANCH   40   41
ATOM     41  C30 UNL A   1      22.339 -10.708  34.263  1.00  0.00    +0.000 C 
ATOM     42  C31 UNL A   1      22.401  -9.429  34.833  1.00  0.00    +0.000 C 
ATOM     43  F6  UNL A   1      23.579  -8.797  34.946  1.00  0.00    +0.000 F 
ATOM     44  C32 UNL A   1      21.253  -8.805  35.313  1.00  0.00    +0.000 C 
ATOM     45  F7  UNL A   1      21.338  -7.595  35.883  1.00  0.00    +0.000 F 
ATOM     46  C33 UNL A   1      20.022  -9.435  35.209  1.00  0.00    +0.000 C 
ATOM     47  F8  UNL A   1      18.916  -8.829  35.662  1.00  0.00    +0.000 F 
ATOM     48  C34 UNL A   1      19.937 -10.698  34.641  1.00  0.00    +0.000 C 
ATOM     49  F9  UNL A   1      18.746 -11.304  34.530  1.00  0.00    +0.000 F 
ATOM     50  C35 UNL A   1      21.085 -11.334  34.181  1.00  0.00    +0.000 C 
ATOM     51  F10 UNL A   1      20.975 -12.556  33.640  1.00  0.00    +0.000 F 
ENDBRANCH   40   41
BRANCH   55   56
ATOM     65  C44 UNL A   1      25.458 -10.169  27.098  1.00  0.00    +0.000 C 
ATOM     66  F15 UNL A   1      26.511  -9.536  27.635  1.00  0.00    +0.000 F 
ATOM     56  C39 UNL A   1      24.856 -11.234  27.782  1.00  0.00    +0.000 C 
ATOM     57  C40 UNL A   1      23.753 -11.858  27.181  1.00  0.00    +0.000 C 
ATOM     58  F11 UNL A   1      23.157 -12.892  27.791  1.00  0.00    +0.000 F 
ATOM     59  C41 UNL A   1      23.279 -11.441  25.940  1.00  0.00    +0.000 C 
ATOM     60  F12 UNL A   1      22.243 -12.073  25.374  1.00  0.00    +0.000 F 
ATOM     61  C42 UNL A   1      23.882 -10.376  25.287  1.00  0.00    +0.000 C 
ATOM     62  F13 UNL A   1      23.421  -9.968  24.097  1.00  0.00    +0.000 F 
ATOM     63  C43 UNL A   1      24.969  -9.737  25.866  1.00  0.00    +0.000 C 
ATOM     64  F14 UNL A   1      25.546  -8.700  25.244  1.00  0.00    +0.000 F 
ENDBRANCH   55   56
TORSDOF 19
ENDMDL
MODEL 9
REMARK VINA RESULT:      -9.8     21.137     28.815
ROOT
ATOM     19  C15 UNL A   1      24.635  39.200  46.920  1.00  0.00    +0.000 C 
ATOM     20  C16 UNL A   1      23.837  40.237  47.658  1.00  0.00    +0.000 C 
ATOM     21  N3  UNL A   1      22.645  40.143  48.190  1.00  0.00    +0.000 N 
ATOM     22  C17 UNL A   1      22.413  41.365  48.808  1.00  0.00    +0.000 C 
ATOM     23  C18 UNL A   1      21.303  41.783  49.461  1.00  0.00    +0.000 C 
ATOM     35  C25 UNL A   1      20.109  40.995  49.611  1.00  0.00    +0.000 C 
ATOM     36  C26 UNL A   1      18.908  41.349  50.201  1.00  0.00    +0.000 C 
ATOM     37  C27 UNL A   1      18.047  40.249  50.136  1.00  0.00    +0.000 C 
ATOM     38  C28 UNL A   1      18.697  39.223  49.468  1.00  0.00    +0.000 C 
ATOM     39  N4  UNL A   1      19.963  39.692  49.158  1.00  0.00    +0.000 N 
ATOM     40  C29 UNL A   1      18.200  37.912  49.136  1.00  0.00    +0.000 C 
ATOM     52  C36 UNL A   1      18.903  36.952  48.486  1.00  0.00    +0.000 C 
ATOM     53  N5  UNL A   1      20.200  37.005  47.993  1.00  0.00    +0.000 N 
ATOM     54  C37 UNL A   1      20.425  35.835  47.448  1.00  0.00    +0.000 C 
ATOM     55  C38 UNL A   1      21.657  35.342  46.738  1.00  0.00    +0.000 C 
ATOM     67  C45 UNL A   1      22.694  36.181  46.554  1.00  0.00    +0.000 C 
ATOM     68  C46 UNL A   1      23.952  35.844  45.895  1.00  0.00    +0.000 C 
ATOM     69  C47 UNL A   1      24.781  36.898  45.968  1.00  0.00    +0.000 C 
ATOM     70  C48 UNL A   1      24.096  37.999  46.646  1.00  0.00    +0.000 C 
ATOM     71  N6  UNL A   1      22.851  37.494  46.929  1.00  0.00    +0.000 N 
ATOM     72  C49 UNL A   1      19.304  34.892  47.562  1.00  0.00    +0.000 C 
ATOM     73  C50 UNL A   1      18.390  35.634  48.175  1.00  0.00    +0.000 C 
ATOM     74  C51 UNL A   1      23.602  42.168  48.619  1.00  0.00    +0.000 C 
ATOM     75  C52 UNL A   1      24.483  41.544  47.852  1.00  0.00    +0.000 C 
ATOM    111  H21 UNL A   1      18.686  42.267  50.618  1.00  0.00    +0.000 H 
ATOM    112  H22 UNL A   1      17.091  40.207  50.520  1.00  0.00    +0.000 H 
ATOM    113  H23 UNL A   1      20.658  39.177  48.687  1.00  0.00    +0.000 H 
ATOM    114  H24 UNL A   1      24.170  34.941  45.446  1.00  0.00    +0.000 H 
ATOM    115  H25 UNL A   1      25.747  36.928  45.603  1.00  0.00    +0.000 H 
ATOM    116  H26 UNL A   1      22.140  38.021  47.359  1.00  0.00    +0.000 H 
ATOM    117  H27 UNL A   1      19.242  33.911  47.249  1.00  0.00    +0.000 H 
ATOM    118  H28 UNL A   1      17.436  35.313  48.401  1.00  0.00    +0.000 H 
ATOM    119  H29 UNL A   1      23.745  43.104  49.029  1.00  0.00    +0.000 H 
ATOM    120  H30 UNL A   1      25.385  41.885  47.486  1.00  0.00    +0.000 H 
ENDROOT
BRANCH   19   18
ATOM     76  C53 UNL A   1      27.056  39.064  47.478  1.00  0.00    +0.000 C 
ATOM    109  H19 UNL A   1      28.026  40.866  44.242  1.00  0.00    +0.000 H 
ATOM     77  C54 UNL A   1      28.392  39.342  47.213  1.00  0.00    +0.000 C 
ATOM     15  C11 UNL A   1      28.748  39.949  46.004  1.00  0.00    +0.000 C 
ATOM     16  C12 UNL A   1      27.761  40.382  45.115  1.00  0.00    +0.000 C 
ATOM     17  C13 UNL A   1      26.414  40.158  45.411  1.00  0.00    +0.000 C 
ATOM    110  H20 UNL A   1      25.683  40.497  44.768  1.00  0.00    +0.000 H 
ATOM     18  C14 UNL A   1      26.054  39.474  46.584  1.00  0.00    +0.000 C 
ATOM    121  H31 UNL A   1      26.798  38.554  48.337  1.00  0.00    +0.000 H 
ATOM    122  H32 UNL A   1      29.119  39.101  47.905  1.00  0.00    +0.000 H 
BRANCH   15   13
ATOM     13  C10 UNL A   1      30.169  40.139  45.649  1.00  0.00    +0.000 C 
ATOM     14  O2  UNL A   1      30.779  41.117  46.071  1.00  0.00    +0.000 O 
BRANCH   13   12
ATOM    108  H18 UNL A   1      31.357  39.607  44.122  1.00  0.00    +0.000 H 
ATOM     12  N2  UNL A   1      30.791  39.227  44.833  1.00  0.00    +0.000 N 
BRANCH   12   11
ATOM    106  H16 UNL A   1      31.707  37.381  44.716  1.00  0.00    +0.000 H 
ATOM     11  C9  UNL A   1      30.725  37.775  44.878  1.00  0.00    +0.000 C 
ATOM    107  H17 UNL A   1      30.345  37.495  45.839  1.00  0.00    +0.000 H 
BRANCH   11   10
ATOM    105  H15 UNL A   1      30.368  36.521  43.238  1.00  0.00    +0.000 H 
ATOM     10  C8  UNL A   1      29.787  37.204  43.822  1.00  0.00    +0.000 C 
ATOM    104  H14 UNL A   1      29.395  38.019  43.249  1.00  0.00    +0.000 H 
BRANCH   10    9
ATOM      9  C7  UNL A   1      28.607  36.404  44.377  1.00  0.00    +0.000 C 
ATOM    102  H12 UNL A   1      28.830  36.147  45.391  1.00  0.00    +0.000 H 
ATOM    103  H13 UNL A   1      27.747  37.032  44.276  1.00  0.00    +0.000 H 
BRANCH    9    8
ATOM    100  H10 UNL A   1      28.134  35.364  42.590  1.00  0.00    +0.000 H 
ATOM    101  H11 UNL A   1      29.118  34.461  43.783  1.00  0.00    +0.000 H 
ATOM      8  C6  UNL A   1      28.287  35.114  43.619  1.00  0.00    +0.000 C 
BRANCH    8    7
ATOM     98  H8  UNL A   1      26.421  35.040  44.640  1.00  0.00    +0.000 H 
ATOM     99  H9  UNL A   1      26.577  33.947  43.237  1.00  0.00    +0.000 H 
ATOM      7  C5  UNL A   1      27.047  34.354  44.109  1.00  0.00    +0.000 C 
BRANCH    7    6
ATOM     97  H7  UNL A   1      28.409  33.049  45.104  1.00  0.00    +0.000 H 
ATOM      6  C4  UNL A   1      27.348  33.167  45.034  1.00  0.00    +0.000 C 
ATOM     96  H6  UNL A   1      26.902  32.284  44.628  1.00  0.00    +0.000 H 
BRANCH    6    5
ATOM      5  N1  UNL A   1      26.817  33.402  46.362  1.00  0.00    +0.000 N 
ATOM     95  H5  UNL A   1      25.854  33.233  46.483  1.00  0.00    +0.000 H 
BRANCH    5    3
ATOM      3  C3  UNL A   1      27.500  33.830  47.469  1.00  0.00    +0.000 C 
ATOM      4  O1  UNL A   1      28.113  32.975  48.110  1.00  0.00    +0.000 O 
BRANCH    3    2
ATOM      2  C2  UNL A   1      27.435  35.317  47.874  1.00  0.00    +0.000 C 
ATOM     94  H4  UNL A   1      26.981  35.864  47.075  1.00  0.00    +0.000 H 
BRANCH    2    1
ATOM      1  C1  UNL A   1      28.865  35.826  48.095  1.00  0.00    +0.000 C 
ATOM     91  H1  UNL A   1      28.906  36.394  49.002  1.00  0.00    +0.000 H 
ATOM     92  H2  UNL A   1      29.154  36.447  47.274  1.00  0.00    +0.000 H 
ATOM     93  H3  UNL A   1      29.533  34.994  48.166  1.00  0.00    +0.000 H 
ENDBRANCH    2    1
BRANCH    2   78
ATOM    129  H39 UNL A   1      24.881  34.461  48.364  1.00  0.00    +0.000 H 
ATOM     78  C55 UNL A   1      26.516  35.589  49.077  1.00  0.00    +0.000 C 
ATOM     79  C56 UNL A   1      26.906  36.446  50.120  1.00  0.00    +0.000 C 
ATOM     80  C57 UNL A   1      26.087  36.652  51.236  1.00  0.00    +0.000 C 
ATOM     81  C58 UNL A   1      24.843  36.022  51.335  1.00  0.00    +0.000 C 
ATOM     89  C64 UNL A   1      24.406  35.233  50.266  1.00  0.00    +0.000 C 
ATOM     90  C65 UNL A   1      25.228  35.032  49.150  1.00  0.00    +0.000 C 
ATOM    123  H33 UNL A   1      27.814  36.934  50.063  1.00  0.00    +0.000 H 
ATOM    124  H34 UNL A   1      26.405  37.275  51.995  1.00  0.00    +0.000 H 
ATOM    128  H38 UNL A   1      23.471  34.795  50.301  1.00  0.00    +0.000 H 
BRANCH   81   82
ATOM     82  C59 UNL A   1      24.015  36.264  52.560  1.00  0.00    +0.000 C 
ATOM     83  O3  UNL A   1      24.530  36.047  53.655  1.00  0.00    +0.000 O 
BRANCH   82   84
ATOM     84  C60 UNL A   1      22.655  36.751  52.416  1.00  0.00    +0.000 C 
ATOM     85  C61 UNL A   1      21.508  36.073  52.043  1.00  0.00    +0.000 C 
ATOM     86  C62 UNL A   1      20.369  36.930  51.996  1.00  0.00    +0.000 C 
ATOM     87  C63 UNL A   1      20.682  38.224  52.350  1.00  0.00    +0.000 C 
ATOM     88  S1  UNL A   1      22.333  38.396  52.760  1.00  0.00    +0.000 S 
ATOM    125  H35 UNL A   1      21.480  35.066  51.825  1.00  0.00    +0.000 H 
ATOM    126  H36 UNL A   1      19.422  36.618  51.729  1.00  0.00    +0.000 H 
ATOM    127  H37 UNL A   1      20.000  38.998  52.366  1.00  0.00    +0.000 H 
ENDBRANCH   82   84
ENDBRANCH   81   82
ENDBRANCH    2   78
ENDBRANCH    3    2
ENDBRANCH    5    3
ENDBRANCH    6    5
ENDBRANCH    7    6
ENDBRANCH    8    7
ENDBRANCH    9    8
ENDBRANCH   10    9
ENDBRANCH   11   10
ENDBRANCH   12   11
ENDBRANCH   13   12
ENDBRANCH   15   13
ENDBRANCH   19   18
BRANCH   23   24
ATOM     33  C24 UNL A   1      21.752  43.336  51.393  1.00  0.00    +0.000 C 
ATOM     34  F5  UNL A   1      22.129  42.283  52.134  1.00  0.00    +0.000 F 
ATOM     24  C19 UNL A   1      21.336  43.156  50.066  1.00  0.00    +0.000 C 
ATOM     25  C20 UNL A   1      20.948  44.292  49.339  1.00  0.00    +0.000 C 
ATOM     26  F1  UNL A   1      20.555  44.173  48.061  1.00  0.00    +0.000 F 
ATOM     27  C21 UNL A   1      21.011  45.561  49.907  1.00  0.00    +0.000 C 
ATOM     28  F2  UNL A   1      20.690  46.637  49.174  1.00  0.00    +0.000 F 
ATOM     29  C22 UNL A   1      21.423  45.716  51.221  1.00  0.00    +0.000 C 
ATOM     30  F3  UNL A   1      21.484  46.939  51.766  1.00  0.00    +0.000 F 
ATOM     31  C23 UNL A   1      21.784  44.604  51.968  1.00  0.00    +0.000 C 
ATOM     32  F4  UNL A   1      22.174  44.752  53.241  1.00  0.00    +0.000 F 
ENDBRANCH   23   24
BRANCH   40   41
ATOM     41  C30 UNL A   1      16.785  37.593  49.516  1.00  0.00    +0.000 C 
ATOM     42  C31 UNL A   1      15.796  37.372  48.547  1.00  0.00    +0.000 C 
ATOM     43  F6  UNL A   1      16.083  37.515  47.244  1.00  0.00    +0.000 F 
ATOM     44  C32 UNL A   1      14.498  37.032  48.918  1.00  0.00    +0.000 C 
ATOM     45  F7  UNL A   1      13.558  36.857  47.979  1.00  0.00    +0.000 F 
ATOM     46  C33 UNL A   1      14.173  36.878  50.258  1.00  0.00    +0.000 C 
ATOM     47  F8  UNL A   1      12.926  36.540  50.612  1.00  0.00    +0.000 F 
ATOM     48  C34 UNL A   1      15.140  37.083  51.231  1.00  0.00    +0.000 C 
ATOM     49  F9  UNL A   1      14.830  36.925  52.526  1.00  0.00    +0.000 F 
ATOM     50  C35 UNL A   1      16.432  37.447  50.866  1.00  0.00    +0.000 C 
ATOM     51  F10 UNL A   1      17.345  37.642  51.828  1.00  0.00    +0.000 F 
ENDBRANCH   40   41
BRANCH   55   56
ATOM     65  C44 UNL A   1      21.286  33.642  44.918  1.00  0.00    +0.000 C 
ATOM     66  F15 UNL A   1      20.794  34.604  44.124  1.00  0.00    +0.000 F 
ATOM     56  C39 UNL A   1      21.732  33.957  46.209  1.00  0.00    +0.000 C 
ATOM     57  C40 UNL A   1      22.231  32.914  47.002  1.00  0.00    +0.000 C 
ATOM     58  F11 UNL A   1      22.685  33.172  48.237  1.00  0.00    +0.000 F 
ATOM     59  C41 UNL A   1      22.293  31.609  46.519  1.00  0.00    +0.000 C 
ATOM     60  F12 UNL A   1      22.802  30.636  47.286  1.00  0.00    +0.000 F 
ATOM     61  C42 UNL A   1      21.834  31.318  45.243  1.00  0.00    +0.000 C 
ATOM     62  F13 UNL A   1      21.884  30.061  44.781  1.00  0.00    +0.000 F 
ATOM     63  C43 UNL A   1      21.327  32.332  44.443  1.00  0.00    +0.000 C 
ATOM     64  F14 UNL A   1      20.871  32.052  43.215  1.00  0.00    +0.000 F 
ENDBRANCH   55   56
TORSDOF 19
ENDMDL
MODEL 10
REMARK VINA RESULT:      -9.8     26.511     34.051
ROOT
ATOM     19  C15 UNL A   1      22.907  20.014   4.110  1.00  0.00    +0.000 C 
ATOM     20  C16 UNL A   1      21.757  19.196   4.625  1.00  0.00    +0.000 C 
ATOM     21  N3  UNL A   1      20.478  19.309   4.371  1.00  0.00    +0.000 N 
ATOM     22  C17 UNL A   1      19.867  18.260   5.046  1.00  0.00    +0.000 C 
ATOM     23  C18 UNL A   1      18.548  17.969   5.135  1.00  0.00    +0.000 C 
ATOM     35  C25 UNL A   1      17.505  18.752   4.529  1.00  0.00    +0.000 C 
ATOM     36  C26 UNL A   1      16.134  18.575   4.611  1.00  0.00    +0.000 C 
ATOM     37  C27 UNL A   1      15.520  19.565   3.836  1.00  0.00    +0.000 C 
ATOM     38  C28 UNL A   1      16.506  20.382   3.306  1.00  0.00    +0.000 C 
ATOM     39  N4  UNL A   1      17.718  19.868   3.733  1.00  0.00    +0.000 N 
ATOM     40  C29 UNL A   1      16.353  21.547   2.472  1.00  0.00    +0.000 C 
ATOM     52  C36 UNL A   1      17.372  22.293   1.980  1.00  0.00    +0.000 C 
ATOM     53  N5  UNL A   1      18.739  22.134   2.167  1.00  0.00    +0.000 N 
ATOM     54  C37 UNL A   1      19.309  23.103   1.494  1.00  0.00    +0.000 C 
ATOM     55  C38 UNL A   1      20.772  23.433   1.363  1.00  0.00    +0.000 C 
ATOM     67  C45 UNL A   1      21.676  22.706   2.047  1.00  0.00    +0.000 C 
ATOM     68  C46 UNL A   1      23.123  22.901   2.013  1.00  0.00    +0.000 C 
ATOM     69  C47 UNL A   1      23.711  21.944   2.748  1.00  0.00    +0.000 C 
ATOM     70  C48 UNL A   1      22.679  21.091   3.337  1.00  0.00    +0.000 C 
ATOM     71  N6  UNL A   1      21.501  21.638   2.893  1.00  0.00    +0.000 N 
ATOM     72  C49 UNL A   1      18.367  23.971   0.773  1.00  0.00    +0.000 C 
ATOM     73  C50 UNL A   1      17.198  23.453   1.130  1.00  0.00    +0.000 C 
ATOM     74  C51 UNL A   1      20.919  17.500   5.688  1.00  0.00    +0.000 C 
ATOM     75  C52 UNL A   1      22.098  18.078   5.519  1.00  0.00    +0.000 C 
ATOM    111  H21 UNL A   1      15.649  17.842   5.149  1.00  0.00    +0.000 H 
ATOM    112  H22 UNL A   1      14.505  19.669   3.683  1.00  0.00    +0.000 H 
ATOM    113  H23 UNL A   1      18.603  20.238   3.506  1.00  0.00    +0.000 H 
ATOM    114  H24 UNL A   1      23.613  23.653   1.504  1.00  0.00    +0.000 H 
ATOM    115  H25 UNL A   1      24.729  21.830   2.879  1.00  0.00    +0.000 H 
ATOM    116  H26 UNL A   1      20.615  21.297   3.156  1.00  0.00    +0.000 H 
ATOM    117  H27 UNL A   1      18.562  24.772   0.154  1.00  0.00    +0.000 H 
ATOM    118  H28 UNL A   1      16.283  23.828   0.838  1.00  0.00    +0.000 H 
ATOM    119  H29 UNL A   1      20.769  16.621   6.208  1.00  0.00    +0.000 H 
ATOM    120  H30 UNL A   1      23.015  17.815   5.911  1.00  0.00    +0.000 H 
ENDROOT
BRANCH   19   18
ATOM     76  C53 UNL A   1      24.923  19.978   5.566  1.00  0.00    +0.000 C 
ATOM    109  H19 UNL A   1      26.821  17.763   3.086  1.00  0.00    +0.000 H 
ATOM     77  C54 UNL A   1      26.240  19.613   5.828  1.00  0.00    +0.000 C 
ATOM     15  C11 UNL A   1      26.910  18.757   4.948  1.00  0.00    +0.000 C 
ATOM     16  C12 UNL A   1      26.307  18.361   3.752  1.00  0.00    +0.000 C 
ATOM     17  C13 UNL A   1      25.007  18.779   3.459  1.00  0.00    +0.000 C 
ATOM    110  H20 UNL A   1      24.568  18.507   2.567  1.00  0.00    +0.000 H 
ATOM     18  C14 UNL A   1      24.297  19.570   4.377  1.00  0.00    +0.000 C 
ATOM    121  H31 UNL A   1      24.404  20.552   6.248  1.00  0.00    +0.000 H 
ATOM    122  H32 UNL A   1      26.720  19.973   6.668  1.00  0.00    +0.000 H 
BRANCH   15   13
ATOM     13  C10 UNL A   1      28.263  18.260   5.271  1.00  0.00    +0.000 C 
ATOM     14  O2  UNL A   1      28.750  17.341   4.619  1.00  0.00    +0.000 O 
BRANCH   13   12
ATOM    108  H18 UNL A   1      29.154  19.780   6.232  1.00  0.00    +0.000 H 
ATOM     12  N2  UNL A   1      28.958  18.819   6.316  1.00  0.00    +0.000 N 
BRANCH   12   11
ATOM    106  H16 UNL A   1      30.210  17.480   7.265  1.00  0.00    +0.000 H 
ATOM     11  C9  UNL A   1      29.443  18.179   7.528  1.00  0.00    +0.000 C 
ATOM    107  H17 UNL A   1      29.817  18.945   8.174  1.00  0.00    +0.000 H 
BRANCH   11   10
ATOM    105  H15 UNL A   1      28.786  16.551   8.672  1.00  0.00    +0.000 H 
ATOM     10  C8  UNL A   1      28.339  17.439   8.274  1.00  0.00    +0.000 C 
ATOM    104  H14 UNL A   1      27.548  17.237   7.582  1.00  0.00    +0.000 H 
BRANCH   10    9
ATOM      9  C7  UNL A   1      27.749  18.197   9.463  1.00  0.00    +0.000 C 
ATOM    102  H12 UNL A   1      27.934  17.624  10.347  1.00  0.00    +0.000 H 
ATOM    103  H13 UNL A   1      28.224  19.155   9.471  1.00  0.00    +0.000 H 
BRANCH    9    8
ATOM    100  H10 UNL A   1      26.026  18.809   8.388  1.00  0.00    +0.000 H 
ATOM    101  H11 UNL A   1      25.765  17.543   9.627  1.00  0.00    +0.000 H 
ATOM      8  C6  UNL A   1      26.245  18.466   9.378  1.00  0.00    +0.000 C 
BRANCH    8    7
ATOM     98  H8  UNL A   1      25.900  20.480   9.971  1.00  0.00    +0.000 H 
ATOM     99  H9  UNL A   1      24.659  19.301  10.482  1.00  0.00    +0.000 H 
ATOM      7  C5  UNL A   1      25.704  19.506  10.369  1.00  0.00    +0.000 C 
BRANCH    7    6
ATOM     97  H7  UNL A   1      26.910  20.305  11.936  1.00  0.00    +0.000 H 
ATOM      6  C4  UNL A   1      26.317  19.430  11.773  1.00  0.00    +0.000 C 
ATOM     96  H6  UNL A   1      26.924  18.551  11.843  1.00  0.00    +0.000 H 
BRANCH    6    5
ATOM      5  N1  UNL A   1      25.280  19.375  12.785  1.00  0.00    +0.000 N 
ATOM     95  H5  UNL A   1      25.496  18.872  13.604  1.00  0.00    +0.000 H 
BRANCH    5    3
ATOM      3  C3  UNL A   1      24.035  19.942  12.734  1.00  0.00    +0.000 C 
ATOM      4  O1  UNL A   1      23.986  21.173  12.694  1.00  0.00    +0.000 O 
BRANCH    3    2
ATOM      2  C2  UNL A   1      22.786  19.038  12.771  1.00  0.00    +0.000 C 
ATOM     94  H4  UNL A   1      21.930  19.638  12.543  1.00  0.00    +0.000 H 
BRANCH    2    1
ATOM      1  C1  UNL A   1      22.644  18.459  14.184  1.00  0.00    +0.000 C 
ATOM     91  H1  UNL A   1      23.568  18.010  14.481  1.00  0.00    +0.000 H 
ATOM     92  H2  UNL A   1      21.871  17.718  14.190  1.00  0.00    +0.000 H 
ATOM     93  H3  UNL A   1      22.392  19.242  14.868  1.00  0.00    +0.000 H 
ENDBRANCH    2    1
BRANCH    2   78
ATOM    129  H39 UNL A   1      21.847  19.135  10.201  1.00  0.00    +0.000 H 
ATOM     78  C55 UNL A   1      22.777  17.952  11.681  1.00  0.00    +0.000 C 
ATOM     79  C56 UNL A   1      23.231  16.649  11.940  1.00  0.00    +0.000 C 
ATOM     80  C57 UNL A   1      23.267  15.678  10.932  1.00  0.00    +0.000 C 
ATOM     81  C58 UNL A   1      22.830  15.976   9.638  1.00  0.00    +0.000 C 
ATOM     89  C64 UNL A   1      22.297  17.244   9.387  1.00  0.00    +0.000 C 
ATOM     90  C65 UNL A   1      22.261  18.211  10.400  1.00  0.00    +0.000 C 
ATOM    123  H33 UNL A   1      23.546  16.401  12.891  1.00  0.00    +0.000 H 
ATOM    124  H34 UNL A   1      23.621  14.732  11.146  1.00  0.00    +0.000 H 
ATOM    128  H38 UNL A   1      21.928  17.469   8.450  1.00  0.00    +0.000 H 
BRANCH   81   82
ATOM     82  C59 UNL A   1      22.907  14.904   8.594  1.00  0.00    +0.000 C 
ATOM     83  O3  UNL A   1      22.185  13.917   8.728  1.00  0.00    +0.000 O 
BRANCH   82   84
ATOM     84  C60 UNL A   1      23.808  15.069   7.468  1.00  0.00    +0.000 C 
ATOM     85  C61 UNL A   1      25.061  15.652   7.417  1.00  0.00    +0.000 C 
ATOM     86  C62 UNL A   1      25.608  15.636   6.100  1.00  0.00    +0.000 C 
ATOM     87  C63 UNL A   1      24.763  15.028   5.198  1.00  0.00    +0.000 C 
ATOM     88  S1  UNL A   1      23.333  14.459   5.941  1.00  0.00    +0.000 S 
ATOM    125  H35 UNL A   1      25.544  16.052   8.236  1.00  0.00    +0.000 H 
ATOM    126  H36 UNL A   1      26.528  16.033   5.852  1.00  0.00    +0.000 H 
ATOM    127  H37 UNL A   1      24.970  14.928   4.192  1.00  0.00    +0.000 H 
ENDBRANCH   82   84
ENDBRANCH   81   82
ENDBRANCH    2   78
ENDBRANCH    3    2
ENDBRANCH    5    3
ENDBRANCH    6    5
ENDBRANCH    7    6
ENDBRANCH    8    7
ENDBRANCH    9    8
ENDBRANCH   10    9
ENDBRANCH   11   10
ENDBRANCH   12   11
ENDBRANCH   13   12
ENDBRANCH   15   13
ENDBRANCH   19   18
BRANCH   23   24
ATOM     33  C24 UNL A   1      18.108  15.492   5.285  1.00  0.00    +0.000 C 
ATOM     34  F5  UNL A   1      18.401  15.376   3.980  1.00  0.00    +0.000 F 
ATOM     24  C19 UNL A   1      18.165  16.744   5.914  1.00  0.00    +0.000 C 
ATOM     25  C20 UNL A   1      17.844  16.809   7.279  1.00  0.00    +0.000 C 
ATOM     26  F1  UNL A   1      17.897  17.981   7.929  1.00  0.00    +0.000 F 
ATOM     27  C21 UNL A   1      17.517  15.659   7.993  1.00  0.00    +0.000 C 
ATOM     28  F2  UNL A   1      17.271  15.737   9.307  1.00  0.00    +0.000 F 
ATOM     29  C22 UNL A   1      17.466  14.432   7.350  1.00  0.00    +0.000 C 
ATOM     30  F3  UNL A   1      17.152  13.326   8.038  1.00  0.00    +0.000 F 
ATOM     31  C23 UNL A   1      17.751  14.349   5.995  1.00  0.00    +0.000 C 
ATOM     32  F4  UNL A   1      17.693  13.164   5.370  1.00  0.00    +0.000 F 
ENDBRANCH   23   24
BRANCH   40   41
ATOM     41  C30 UNL A   1      14.957  21.983   2.142  1.00  0.00    +0.000 C 
ATOM     42  C31 UNL A   1      14.331  21.604   0.947  1.00  0.00    +0.000 C 
ATOM     43  F6  UNL A   1      15.003  20.891   0.029  1.00  0.00    +0.000 F 
ATOM     44  C32 UNL A   1      13.018  21.980   0.679  1.00  0.00    +0.000 C 
ATOM     45  F7  UNL A   1      12.447  21.635  -0.484  1.00  0.00    +0.000 F 
ATOM     46  C33 UNL A   1      12.300  22.717   1.609  1.00  0.00    +0.000 C 
ATOM     47  F8  UNL A   1      11.033  23.069   1.354  1.00  0.00    +0.000 F 
ATOM     48  C34 UNL A   1      12.898  23.095   2.802  1.00  0.00    +0.000 C 
ATOM     49  F9  UNL A   1      12.203  23.798   3.707  1.00  0.00    +0.000 F 
ATOM     50  C35 UNL A   1      14.218  22.741   3.064  1.00  0.00    +0.000 C 
ATOM     51  F10 UNL A   1      14.773  23.123   4.223  1.00  0.00    +0.000 F 
ENDBRANCH   40   41
BRANCH   55   56
ATOM     65  C44 UNL A   1      21.491  25.828   1.072  1.00  0.00    +0.000 C 
ATOM     66  F15 UNL A   1      21.350  26.028   2.390  1.00  0.00    +0.000 F 
ATOM     56  C39 UNL A   1      21.228  24.567   0.521  1.00  0.00    +0.000 C 
ATOM     57  C40 UNL A   1      21.384  24.411  -0.864  1.00  0.00    +0.000 C 
ATOM     58  F11 UNL A   1      21.160  23.218  -1.432  1.00  0.00    +0.000 F 
ATOM     59  C41 UNL A   1      21.798  25.473  -1.664  1.00  0.00    +0.000 C 
ATOM     60  F12 UNL A   1      21.969  25.290  -2.980  1.00  0.00    +0.000 F 
ATOM     61  C42 UNL A   1      22.041  26.716  -1.100  1.00  0.00    +0.000 C 
ATOM     62  F13 UNL A   1      22.431  27.740  -1.871  1.00  0.00    +0.000 F 
ATOM     63  C43 UNL A   1      21.884  26.896   0.267  1.00  0.00    +0.000 C 
ATOM     64  F14 UNL A   1      22.105  28.099   0.814  1.00  0.00    +0.000 F 
ENDBRANCH   55   56
TORSDOF 19
ENDMDL
