MODEL 1
REMARK VINA RESULT:      -9.5      0.000      0.000
ROOT
ATOM    135  H36 UNL A   1      46.479  28.339  30.259  1.00  0.00    +0.000 H 
ATOM    136  H37 UNL A   1      45.050  28.441  32.502  1.00  0.00    +0.000 H 
ATOM    137  H38 UNL A   1      44.584  31.889  30.447  1.00  0.00    +0.000 H 
ATOM    138  H39 UNL A   1      36.925  28.960  30.535  1.00  0.00    +0.000 H 
ATOM    139  H40 UNL A   1      38.247  26.950  29.695  1.00  0.00    +0.000 H 
ATOM    140  H41 UNL A   1      40.932  30.092  30.071  1.00  0.00    +0.000 H 
ATOM    141  H42 UNL A   1      40.300  33.209  29.597  1.00  0.00    +0.000 H 
ATOM    142  H43 UNL A   1      42.737  32.498  30.067  1.00  0.00    +0.000 H 
ATOM    143  H44 UNL A   1      43.924  29.192  25.695  1.00  0.00    +0.000 H 
ATOM    144  H45 UNL A   1      41.504  28.353  25.985  1.00  0.00    +0.000 H 
ATOM     39  C34 UNL A   1      40.891  27.671  28.708  1.00  0.00    +0.000 C 
ATOM     40  C35 UNL A   1      42.114  28.328  28.173  1.00  0.00    +0.000 C 
ATOM     41  N3  UNL A   1      43.190  28.648  28.813  1.00  0.00    +0.000 N 
ATOM     42  C36 UNL A   1      44.014  29.286  27.888  1.00  0.00    +0.000 C 
ATOM     43  C37 UNL A   1      44.966  30.173  28.290  1.00  0.00    +0.000 C 
ATOM     55  C44 UNL A   1      45.241  30.030  29.698  1.00  0.00    +0.000 C 
ATOM     56  C45 UNL A   1      45.731  29.010  30.491  1.00  0.00    +0.000 C 
ATOM     57  C46 UNL A   1      44.979  29.087  31.700  1.00  0.00    +0.000 C 
ATOM     58  C47 UNL A   1      44.131  30.189  31.608  1.00  0.00    +0.000 C 
ATOM     59  N4  UNL A   1      44.640  30.913  30.560  1.00  0.00    +0.000 N 
ATOM     60  C48 UNL A   1      42.926  30.552  32.310  1.00  0.00    +0.000 C 
ATOM     72  C55 UNL A   1      41.990  31.431  31.851  1.00  0.00    +0.000 C 
ATOM     73  N5  UNL A   1      40.700  31.411  32.356  1.00  0.00    +0.000 N 
ATOM     74  C56 UNL A   1      39.963  31.853  31.377  1.00  0.00    +0.000 C 
ATOM     75  C57 UNL A   1      38.644  31.274  31.039  1.00  0.00    +0.000 C 
ATOM     87  C64 UNL A   1      38.861  30.035  30.535  1.00  0.00    +0.000 C 
ATOM     88  C65 UNL A   1      37.937  28.944  30.331  1.00  0.00    +0.000 C 
ATOM     89  C66 UNL A   1      38.626  27.901  29.825  1.00  0.00    +0.000 C 
ATOM     90  C67 UNL A   1      39.993  28.319  29.485  1.00  0.00    +0.000 C 
ATOM     91  N6  UNL A   1      40.096  29.574  30.034  1.00  0.00    +0.000 N 
ATOM     92  C68 UNL A   1      40.663  32.592  30.340  1.00  0.00    +0.000 C 
ATOM     93  C69 UNL A   1      41.916  32.236  30.634  1.00  0.00    +0.000 C 
ATOM     94  C70 UNL A   1      43.444  29.025  26.593  1.00  0.00    +0.000 C 
ATOM     95  C71 UNL A   1      42.209  28.537  26.717  1.00  0.00    +0.000 C 
ENDROOT
BRANCH   39   38
ATOM     97  C73 UNL A   1      41.262  24.107  27.843  1.00  0.00    +0.000 C 
ATOM     35  C30 UNL A   1      40.067  23.839  27.187  1.00  0.00    +0.000 C 
ATOM     36  C31 UNL A   1      39.162  24.866  26.896  1.00  0.00    +0.000 C 
ATOM    133  H34 UNL A   1      38.300  24.671  26.363  1.00  0.00    +0.000 H 
ATOM     37  C32 UNL A   1      39.448  26.155  27.339  1.00  0.00    +0.000 C 
ATOM     38  C33 UNL A   1      40.591  26.370  28.123  1.00  0.00    +0.000 C 
ATOM    134  H35 UNL A   1      38.827  26.942  27.094  1.00  0.00    +0.000 H 
ATOM    145  H46 UNL A   1      42.215  25.462  29.115  1.00  0.00    +0.000 H 
ATOM    146  H47 UNL A   1      42.006  23.392  27.879  1.00  0.00    +0.000 H 
ATOM     96  C72 UNL A   1      41.449  25.323  28.439  1.00  0.00    +0.000 C 
BRANCH   35   33
ATOM     33  C29 UNL A   1      39.773  22.432  26.849  1.00  0.00    +0.000 C 
ATOM     34  O2  UNL A   1      38.800  22.143  26.191  1.00  0.00    +0.000 O 
BRANCH   33   32
ATOM    132  H33 UNL A   1      41.169  21.681  28.116  1.00  0.00    +0.000 H 
ATOM     32  N2  UNL A   1      40.650  21.459  27.310  1.00  0.00    +0.000 N 
BRANCH   32   31
ATOM    130  H31 UNL A   1      40.671  19.393  27.462  1.00  0.00    +0.000 H 
ATOM    131  H32 UNL A   1      40.247  20.040  25.872  1.00  0.00    +0.000 H 
ATOM     31  C28 UNL A   1      40.885  20.138  26.725  1.00  0.00    +0.000 C 
BRANCH   31   30
ATOM    129  H30 UNL A   1      42.282  19.386  25.356  1.00  0.00    +0.000 H 
ATOM     30  C27 UNL A   1      42.319  19.964  26.255  1.00  0.00    +0.000 C 
ATOM    128  H29 UNL A   1      42.872  19.481  27.034  1.00  0.00    +0.000 H 
BRANCH   30   29
ATOM     29  C26 UNL A   1      43.027  21.283  25.907  1.00  0.00    +0.000 C 
ATOM    126  H27 UNL A   1      42.393  21.823  25.234  1.00  0.00    +0.000 H 
ATOM    127  H28 UNL A   1      43.198  21.767  26.846  1.00  0.00    +0.000 H 
BRANCH   29   28
ATOM    124  H25 UNL A   1      44.772  20.177  25.407  1.00  0.00    +0.000 H 
ATOM     28  C25 UNL A   1      44.412  21.173  25.252  1.00  0.00    +0.000 C 
ATOM    125  H26 UNL A   1      44.270  21.426  24.222  1.00  0.00    +0.000 H 
BRANCH   28   27
ATOM    122  H23 UNL A   1      46.152  21.593  26.394  1.00  0.00    +0.000 H 
ATOM     27  C24 UNL A   1      45.470  22.143  25.780  1.00  0.00    +0.000 C 
ATOM    123  H24 UNL A   1      45.938  22.578  24.922  1.00  0.00    +0.000 H 
BRANCH   27   26
ATOM    121  H22 UNL A   1      43.848  23.226  26.591  1.00  0.00    +0.000 H 
ATOM     26  C23 UNL A   1      44.915  23.301  26.605  1.00  0.00    +0.000 C 
ATOM    120  H21 UNL A   1      45.251  24.221  26.174  1.00  0.00    +0.000 H 
BRANCH   26   25
ATOM     25  N1  UNL A   1      45.338  23.255  27.984  1.00  0.00    +0.000 N 
ATOM    119  H20 UNL A   1      46.267  22.965  28.134  1.00  0.00    +0.000 H 
BRANCH   25   23
ATOM     23  C22 UNL A   1      44.624  23.558  29.109  1.00  0.00    +0.000 C 
ATOM     24  O1  UNL A   1      43.959  22.655  29.621  1.00  0.00    +0.000 O 
BRANCH   23   22
ATOM    118  H19 UNL A   1      43.807  25.014  30.385  1.00  0.00    +0.000 H 
ATOM    117  H18 UNL A   1      44.440  25.654  28.851  1.00  0.00    +0.000 H 
ATOM     22  C21 UNL A   1      44.596  24.977  29.664  1.00  0.00    +0.000 C 
BRANCH   22   21
ATOM      2  C2  UNL A   1      45.872  25.528  34.068  1.00  0.00    +0.000 C 
ATOM     99  C74 UNL A   1      45.153  24.888  32.844  1.00  0.00    +0.000 C 
ATOM      4  C4  UNL A   1      47.368  25.626  33.617  1.00  0.00    +0.000 C 
ATOM      5  C5  UNL A   1      47.242  25.690  32.141  1.00  0.00    +0.000 C 
ATOM     98  N7  UNL A   1      46.004  25.283  31.729  1.00  0.00    +0.000 N 
ATOM      6  C6  UNL A   1      47.958  26.036  31.028  1.00  0.00    +0.000 C 
ATOM    106  H7  UNL A   1      47.924  24.765  33.923  1.00  0.00    +0.000 H 
ATOM    107  H8  UNL A   1      47.893  26.456  34.041  1.00  0.00    +0.000 H 
ATOM     13  C13 UNL A   1      47.089  25.823  29.898  1.00  0.00    +0.000 C 
ATOM    147  H48 UNL A   1      44.163  25.279  32.732  1.00  0.00    +0.000 H 
ATOM    148  H49 UNL A   1      45.029  23.829  32.931  1.00  0.00    +0.000 H 
ATOM     21  C20 UNL A   1      45.856  25.374  30.375  1.00  0.00    +0.000 C 
BRANCH    2    1
ATOM      1  C1  UNL A   1      45.703  24.670  35.322  1.00  0.00    +0.000 C 
ATOM    100  H1  UNL A   1      46.643  24.581  35.823  1.00  0.00    +0.000 H 
ATOM    101  H2  UNL A   1      45.352  23.699  35.045  1.00  0.00    +0.000 H 
ATOM    102  H3  UNL A   1      44.993  25.132  35.977  1.00  0.00    +0.000 H 
ENDBRANCH    2    1
BRANCH    2    3
ATOM    105  H6  UNL A   1      44.870  26.952  35.328  1.00  0.00    +0.000 H 
ATOM      3  C3  UNL A   1      45.322  26.938  34.358  1.00  0.00    +0.000 C 
ATOM    103  H4  UNL A   1      44.591  27.194  33.620  1.00  0.00    +0.000 H 
ATOM    104  H5  UNL A   1      46.123  27.646  34.327  1.00  0.00    +0.000 H 
ENDBRANCH    2    3
BRANCH    6    7
ATOM      7  C7  UNL A   1      49.333  26.482  30.993  1.00  0.00    +0.000 C 
ATOM      8  C8  UNL A   1      50.361  25.565  30.762  1.00  0.00    +0.000 C 
ATOM      9  C9  UNL A   1      51.635  26.027  30.436  1.00  0.00    +0.000 C 
ATOM     10  C10 UNL A   1      51.887  27.399  30.358  1.00  0.00    +0.000 C 
ATOM     11  C11 UNL A   1      50.879  28.316  30.651  1.00  0.00    +0.000 C 
ATOM     12  C12 UNL A   1      49.603  27.858  30.966  1.00  0.00    +0.000 C 
ATOM    108  H9  UNL A   1      50.179  24.552  30.832  1.00  0.00    +0.000 H 
ATOM    109  H10 UNL A   1      52.396  25.354  30.253  1.00  0.00    +0.000 H 
ATOM    111  H12 UNL A   1      51.078  29.329  30.633  1.00  0.00    +0.000 H 
ATOM    112  H13 UNL A   1      48.854  28.532  31.182  1.00  0.00    +0.000 H 
ATOM    110  H11 UNL A   1      52.822  27.737  30.080  1.00  0.00    +0.000 H 
ENDBRANCH    6    7
BRANCH   13   14
ATOM     14  C14 UNL A   1      47.455  26.010  28.499  1.00  0.00    +0.000 C 
ATOM     15  C15 UNL A   1      46.948  27.114  27.795  1.00  0.00    +0.000 C 
ATOM     16  C16 UNL A   1      47.144  27.228  26.417  1.00  0.00    +0.000 C 
ATOM    113  H14 UNL A   1      46.428  27.848  28.302  1.00  0.00    +0.000 H 
ATOM     17  C17 UNL A   1      47.859  26.244  25.738  1.00  0.00    +0.000 C 
ATOM     19  C18 UNL A   1      48.372  25.145  26.425  1.00  0.00    +0.000 C 
ATOM     20  C19 UNL A   1      48.154  25.022  27.799  1.00  0.00    +0.000 C 
ATOM    116  H17 UNL A   1      48.513  24.195  28.302  1.00  0.00    +0.000 H 
ATOM    114  H15 UNL A   1      46.761  28.038  25.904  1.00  0.00    +0.000 H 
ATOM    115  H16 UNL A   1      48.911  24.426  25.919  1.00  0.00    +0.000 H 
ATOM     18 Cl1  UNL A   1      48.083  26.369  24.036  1.00  0.00    +0.000 Cl
ENDBRANCH   13   14
ENDBRANCH   22   21
ENDBRANCH   23   22
ENDBRANCH   25   23
ENDBRANCH   26   25
ENDBRANCH   27   26
ENDBRANCH   28   27
ENDBRANCH   29   28
ENDBRANCH   30   29
ENDBRANCH   31   30
ENDBRANCH   32   31
ENDBRANCH   33   32
ENDBRANCH   35   33
ENDBRANCH   39   38
BRANCH   43   44
ATOM     44  C38 UNL A   1      45.386  31.403  27.514  1.00  0.00    +0.000 C 
ATOM     45  C39 UNL A   1      46.718  31.505  27.061  1.00  0.00    +0.000 C 
ATOM     46  F1  UNL A   1      47.532  30.439  27.083  1.00  0.00    +0.000 F 
ATOM     47  C40 UNL A   1      47.274  32.723  26.660  1.00  0.00    +0.000 C 
ATOM     48  F2  UNL A   1      48.578  32.794  26.361  1.00  0.00    +0.000 F 
ATOM     49  C41 UNL A   1      46.506  33.871  26.637  1.00  0.00    +0.000 C 
ATOM     50  F3  UNL A   1      47.051  35.051  26.312  1.00  0.00    +0.000 F 
ATOM     51  C42 UNL A   1      45.179  33.800  26.999  1.00  0.00    +0.000 C 
ATOM     52  F4  UNL A   1      44.419  34.905  26.997  1.00  0.00    +0.000 F 
ATOM     53  C43 UNL A   1      44.636  32.598  27.451  1.00  0.00    +0.000 C 
ATOM     54  F5  UNL A   1      43.386  32.685  27.919  1.00  0.00    +0.000 F 
ENDBRANCH   43   44
BRANCH   60   61
ATOM     65  F7  UNL A   1      41.100  26.531  34.528  1.00  0.00    +0.000 F 
ATOM     66  C52 UNL A   1      42.125  28.200  35.844  1.00  0.00    +0.000 C 
ATOM     67  F8  UNL A   1      41.935  27.466  36.950  1.00  0.00    +0.000 F 
ATOM     68  C53 UNL A   1      42.765  29.427  35.925  1.00  0.00    +0.000 C 
ATOM     69  F9  UNL A   1      43.215  29.870  37.107  1.00  0.00    +0.000 F 
ATOM     70  C54 UNL A   1      42.971  30.191  34.779  1.00  0.00    +0.000 C 
ATOM     71  F10 UNL A   1      43.611  31.365  34.891  1.00  0.00    +0.000 F 
ATOM     61  C49 UNL A   1      42.564  29.735  33.521  1.00  0.00    +0.000 C 
ATOM     62  C50 UNL A   1      41.946  28.473  33.461  1.00  0.00    +0.000 C 
ATOM     63  F6  UNL A   1      41.613  27.926  32.286  1.00  0.00    +0.000 F 
ATOM     64  C51 UNL A   1      41.707  27.724  34.614  1.00  0.00    +0.000 C 
ENDBRANCH   60   61
BRANCH   75   76
ATOM     76  C58 UNL A   1      37.470  32.137  30.814  1.00  0.00    +0.000 C 
ATOM     77  C59 UNL A   1      37.147  32.621  29.537  1.00  0.00    +0.000 C 
ATOM     78  F11 UNL A   1      38.039  32.531  28.540  1.00  0.00    +0.000 F 
ATOM     79  C60 UNL A   1      35.872  33.116  29.247  1.00  0.00    +0.000 C 
ATOM     80  F12 UNL A   1      35.574  33.524  28.006  1.00  0.00    +0.000 F 
ATOM     81  C61 UNL A   1      34.882  33.097  30.214  1.00  0.00    +0.000 C 
ATOM     82  F13 UNL A   1      33.633  33.487  29.921  1.00  0.00    +0.000 F 
ATOM     83  C62 UNL A   1      35.175  32.605  31.472  1.00  0.00    +0.000 C 
ATOM     84  F14 UNL A   1      34.190  32.416  32.352  1.00  0.00    +0.000 F 
ATOM     85  C63 UNL A   1      36.458  32.173  31.785  1.00  0.00    +0.000 C 
ATOM     86  F15 UNL A   1      36.663  31.661  33.008  1.00  0.00    +0.000 F 
ENDBRANCH   75   76
TORSDOF 20
ENDMDL
MODEL 2
REMARK VINA RESULT:      -9.5      1.732      3.206
ROOT
ATOM    135  H36 UNL A   1      46.387  29.099  30.234  1.00  0.00    +0.000 H 
ATOM    136  H37 UNL A   1      45.043  28.958  32.528  1.00  0.00    +0.000 H 
ATOM    137  H38 UNL A   1      44.067  32.373  30.600  1.00  0.00    +0.000 H 
ATOM    138  H39 UNL A   1      36.849  28.490  30.863  1.00  0.00    +0.000 H 
ATOM    139  H40 UNL A   1      38.381  26.688  29.914  1.00  0.00    +0.000 H 
ATOM    140  H41 UNL A   1      40.659  30.136  30.295  1.00  0.00    +0.000 H 
ATOM    141  H42 UNL A   1      39.621  33.159  29.942  1.00  0.00    +0.000 H 
ATOM    142  H43 UNL A   1      42.144  32.751  30.304  1.00  0.00    +0.000 H 
ATOM    143  H44 UNL A   1      43.569  29.743  25.791  1.00  0.00    +0.000 H 
ATOM    144  H45 UNL A   1      41.288  28.595  26.139  1.00  0.00    +0.000 H 
ATOM     39  C34 UNL A   1      40.872  27.767  28.858  1.00  0.00    +0.000 C 
ATOM     40  C35 UNL A   1      41.981  28.588  28.302  1.00  0.00    +0.000 C 
ATOM     41  N3  UNL A   1      43.031  29.026  28.914  1.00  0.00    +0.000 N 
ATOM     42  C36 UNL A   1      43.732  29.788  27.982  1.00  0.00    +0.000 C 
ATOM     43  C37 UNL A   1      44.579  30.778  28.378  1.00  0.00    +0.000 C 
ATOM     55  C44 UNL A   1      44.924  30.633  29.770  1.00  0.00    +0.000 C 
ATOM     56  C45 UNL A   1      45.569  29.663  30.513  1.00  0.00    +0.000 C 
ATOM     57  C46 UNL A   1      44.860  29.611  31.749  1.00  0.00    +0.000 C 
ATOM     58  C47 UNL A   1      43.877  30.598  31.722  1.00  0.00    +0.000 C 
ATOM     59  N4  UNL A   1      44.249  31.409  30.680  1.00  0.00    +0.000 N 
ATOM     60  C48 UNL A   1      42.664  30.785  32.477  1.00  0.00    +0.000 C 
ATOM     72  C55 UNL A   1      41.608  31.550  32.079  1.00  0.00    +0.000 C 
ATOM     73  N5  UNL A   1      40.351  31.352  32.627  1.00  0.00    +0.000 N 
ATOM     74  C56 UNL A   1      39.526  31.723  31.689  1.00  0.00    +0.000 C 
ATOM     75  C57 UNL A   1      38.279  30.990  31.379  1.00  0.00    +0.000 C 
ATOM     87  C64 UNL A   1      38.631  29.802  30.829  1.00  0.00    +0.000 C 
ATOM     88  C65 UNL A   1      37.846  28.608  30.623  1.00  0.00    +0.000 C 
ATOM     89  C66 UNL A   1      38.641  27.676  30.060  1.00  0.00    +0.000 C 
ATOM     90  C67 UNL A   1      39.930  28.274  29.686  1.00  0.00    +0.000 C 
ATOM     91  N6  UNL A   1      39.895  29.517  30.270  1.00  0.00    +0.000 N 
ATOM     92  C68 UNL A   1      40.086  32.573  30.652  1.00  0.00    +0.000 C 
ATOM     93  C69 UNL A   1      41.385  32.371  30.891  1.00  0.00    +0.000 C 
ATOM     94  C70 UNL A   1      43.150  29.491  26.700  1.00  0.00    +0.000 C 
ATOM     95  C71 UNL A   1      41.992  28.847  26.851  1.00  0.00    +0.000 C 
ENDROOT
BRANCH   39   38
ATOM     97  C73 UNL A   1      41.424  24.186  28.180  1.00  0.00    +0.000 C 
ATOM     35  C30 UNL A   1      40.423  23.905  27.258  1.00  0.00    +0.000 C 
ATOM     36  C31 UNL A   1      39.622  24.926  26.735  1.00  0.00    +0.000 C 
ATOM    133  H34 UNL A   1      38.914  24.721  26.012  1.00  0.00    +0.000 H 
ATOM     37  C32 UNL A   1      39.798  26.224  27.209  1.00  0.00    +0.000 C 
ATOM     38  C33 UNL A   1      40.716  26.454  28.244  1.00  0.00    +0.000 C 
ATOM    134  H35 UNL A   1      39.260  27.006  26.804  1.00  0.00    +0.000 H 
ATOM    145  H46 UNL A   1      42.044  25.566  29.620  1.00  0.00    +0.000 H 
ATOM    146  H47 UNL A   1      42.132  23.471  28.411  1.00  0.00    +0.000 H 
ATOM     96  C72 UNL A   1      41.465  25.413  28.780  1.00  0.00    +0.000 C 
BRANCH   35   33
ATOM     33  C29 UNL A   1      40.212  22.491  26.886  1.00  0.00    +0.000 C 
ATOM     34  O2  UNL A   1      39.171  22.130  26.386  1.00  0.00    +0.000 O 
BRANCH   33   32
ATOM    132  H33 UNL A   1      41.957  21.902  27.738  1.00  0.00    +0.000 H 
ATOM     32  N2  UNL A   1      41.247  21.598  27.128  1.00  0.00    +0.000 N 
BRANCH   32   31
ATOM    130  H31 UNL A   1      41.289  19.540  27.366  1.00  0.00    +0.000 H 
ATOM    131  H32 UNL A   1      40.640  20.121  25.827  1.00  0.00    +0.000 H 
ATOM     31  C28 UNL A   1      41.395  20.251  26.574  1.00  0.00    +0.000 C 
BRANCH   31   30
ATOM    129  H30 UNL A   1      42.555  19.825  24.882  1.00  0.00    +0.000 H 
ATOM     30  C27 UNL A   1      42.745  20.047  25.910  1.00  0.00    +0.000 C 
ATOM    128  H29 UNL A   1      43.252  19.252  26.417  1.00  0.00    +0.000 H 
BRANCH   30   29
ATOM     29  C26 UNL A   1      43.649  21.290  25.937  1.00  0.00    +0.000 C 
ATOM    126  H27 UNL A   1      43.029  22.136  26.154  1.00  0.00    +0.000 H 
ATOM    127  H28 UNL A   1      44.394  21.081  26.675  1.00  0.00    +0.000 H 
BRANCH   29   28
ATOM    124  H25 UNL A   1      45.455  21.344  24.817  1.00  0.00    +0.000 H 
ATOM     28  C25 UNL A   1      44.430  21.605  24.652  1.00  0.00    +0.000 C 
ATOM    125  H26 UNL A   1      43.959  21.038  23.876  1.00  0.00    +0.000 H 
BRANCH   28   27
ATOM    122  H23 UNL A   1      45.388  23.434  24.158  1.00  0.00    +0.000 H 
ATOM     27  C24 UNL A   1      44.385  23.063  24.192  1.00  0.00    +0.000 C 
ATOM    123  H24 UNL A   1      43.905  23.065  23.236  1.00  0.00    +0.000 H 
BRANCH   27   26
ATOM    121  H22 UNL A   1      43.078  23.377  25.822  1.00  0.00    +0.000 H 
ATOM     26  C23 UNL A   1      43.566  23.987  25.091  1.00  0.00    +0.000 C 
ATOM    120  H21 UNL A   1      42.861  24.517  24.485  1.00  0.00    +0.000 H 
BRANCH   26   25
ATOM     25  N1  UNL A   1      44.383  24.945  25.796  1.00  0.00    +0.000 N 
ATOM    119  H20 UNL A   1      44.650  25.739  25.277  1.00  0.00    +0.000 H 
BRANCH   25   23
ATOM     23  C22 UNL A   1      44.836  24.901  27.083  1.00  0.00    +0.000 C 
ATOM     24  O1  UNL A   1      45.294  23.830  27.488  1.00  0.00    +0.000 O 
BRANCH   23   22
ATOM    118  H19 UNL A   1      43.908  25.904  28.680  1.00  0.00    +0.000 H 
ATOM    117  H18 UNL A   1      44.528  26.974  27.401  1.00  0.00    +0.000 H 
ATOM     22  C21 UNL A   1      44.710  26.109  28.004  1.00  0.00    +0.000 C 
BRANCH   22   21
ATOM      2  C2  UNL A   1      48.967  27.723  27.224  1.00  0.00    +0.000 C 
ATOM     99  C74 UNL A   1      47.419  27.610  27.088  1.00  0.00    +0.000 C 
ATOM      4  C4  UNL A   1      49.203  27.832  28.768  1.00  0.00    +0.000 C 
ATOM      5  C5  UNL A   1      48.005  27.148  29.312  1.00  0.00    +0.000 C 
ATOM     98  N7  UNL A   1      47.026  27.028  28.365  1.00  0.00    +0.000 N 
ATOM      6  C6  UNL A   1      47.541  26.576  30.464  1.00  0.00    +0.000 C 
ATOM    106  H7  UNL A   1      49.244  28.853  29.083  1.00  0.00    +0.000 H 
ATOM    107  H8  UNL A   1      50.127  27.405  29.094  1.00  0.00    +0.000 H 
ATOM     13  C13 UNL A   1      46.216  26.088  30.176  1.00  0.00    +0.000 C 
ATOM    147  H48 UNL A   1      47.150  26.971  26.273  1.00  0.00    +0.000 H 
ATOM    148  H49 UNL A   1      46.943  28.546  26.882  1.00  0.00    +0.000 H 
ATOM     21  C20 UNL A   1      45.931  26.364  28.838  1.00  0.00    +0.000 C 
BRANCH    2    1
ATOM      1  C1  UNL A   1      49.502  28.940  26.471  1.00  0.00    +0.000 C 
ATOM    100  H1  UNL A   1      48.722  29.361  25.871  1.00  0.00    +0.000 H 
ATOM    101  H2  UNL A   1      50.314  28.642  25.842  1.00  0.00    +0.000 H 
ATOM    102  H3  UNL A   1      49.845  29.672  27.173  1.00  0.00    +0.000 H 
ENDBRANCH    2    1
BRANCH    2    3
ATOM    105  H6  UNL A   1      49.221  26.185  25.744  1.00  0.00    +0.000 H 
ATOM      3  C3  UNL A   1      49.663  26.461  26.679  1.00  0.00    +0.000 C 
ATOM    103  H4  UNL A   1      49.547  25.660  27.379  1.00  0.00    +0.000 H 
ATOM    104  H5  UNL A   1      50.704  26.662  26.536  1.00  0.00    +0.000 H 
ENDBRANCH    2    3
BRANCH    6    7
ATOM      7  C7  UNL A   1      48.230  26.516  31.735  1.00  0.00    +0.000 C 
ATOM      8  C8  UNL A   1      48.436  27.683  32.475  1.00  0.00    +0.000 C 
ATOM      9  C9  UNL A   1      48.826  27.591  33.810  1.00  0.00    +0.000 C 
ATOM     10  C10 UNL A   1      49.025  26.340  34.400  1.00  0.00    +0.000 C 
ATOM     11  C11 UNL A   1      48.882  25.177  33.645  1.00  0.00    +0.000 C 
ATOM     12  C12 UNL A   1      48.483  25.266  32.315  1.00  0.00    +0.000 C 
ATOM    108  H9  UNL A   1      48.301  28.607  32.036  1.00  0.00    +0.000 H 
ATOM    109  H10 UNL A   1      48.968  28.449  34.365  1.00  0.00    +0.000 H 
ATOM    111  H12 UNL A   1      49.071  24.256  34.071  1.00  0.00    +0.000 H 
ATOM    112  H13 UNL A   1      48.375  24.407  31.753  1.00  0.00    +0.000 H 
ATOM    110  H11 UNL A   1      49.278  26.276  35.399  1.00  0.00    +0.000 H 
ENDBRANCH    6    7
BRANCH   13   14
ATOM     14  C14 UNL A   1      45.318  25.451  31.133  1.00  0.00    +0.000 C 
ATOM     15  C15 UNL A   1      44.957  26.138  32.302  1.00  0.00    +0.000 C 
ATOM     16  C16 UNL A   1      44.238  25.493  33.312  1.00  0.00    +0.000 C 
ATOM    113  H14 UNL A   1      45.223  27.129  32.416  1.00  0.00    +0.000 H 
ATOM     17  C17 UNL A   1      43.866  24.160  33.149  1.00  0.00    +0.000 C 
ATOM     19  C18 UNL A   1      44.214  23.468  31.991  1.00  0.00    +0.000 C 
ATOM     20  C19 UNL A   1      44.954  24.109  30.994  1.00  0.00    +0.000 C 
ATOM    116  H17 UNL A   1      45.232  23.587  30.148  1.00  0.00    +0.000 H 
ATOM    114  H15 UNL A   1      43.983  26.001  34.173  1.00  0.00    +0.000 H 
ATOM    115  H16 UNL A   1      43.925  22.484  31.871  1.00  0.00    +0.000 H 
ATOM     18 Cl1  UNL A   1      43.000  23.354  34.399  1.00  0.00    +0.000 Cl
ENDBRANCH   13   14
ENDBRANCH   22   21
ENDBRANCH   23   22
ENDBRANCH   25   23
ENDBRANCH   26   25
ENDBRANCH   27   26
ENDBRANCH   28   27
ENDBRANCH   29   28
ENDBRANCH   30   29
ENDBRANCH   31   30
ENDBRANCH   32   31
ENDBRANCH   33   32
ENDBRANCH   35   33
ENDBRANCH   39   38
BRANCH   43   44
ATOM     44  C38 UNL A   1      44.809  32.071  27.627  1.00  0.00    +0.000 C 
ATOM     45  C39 UNL A   1      46.010  32.239  26.904  1.00  0.00    +0.000 C 
ATOM     46  F1  UNL A   1      46.816  31.194  26.665  1.00  0.00    +0.000 F 
ATOM     47  C40 UNL A   1      46.456  33.497  26.487  1.00  0.00    +0.000 C 
ATOM     48  F2  UNL A   1      47.662  33.620  25.918  1.00  0.00    +0.000 F 
ATOM     49  C41 UNL A   1      45.692  34.625  26.721  1.00  0.00    +0.000 C 
ATOM     50  F3  UNL A   1      46.145  35.838  26.378  1.00  0.00    +0.000 F 
ATOM     51  C42 UNL A   1      44.478  34.494  27.357  1.00  0.00    +0.000 C 
ATOM     52  F4  UNL A   1      43.728  35.578  27.606  1.00  0.00    +0.000 F 
ATOM     53  C43 UNL A   1      44.055  33.250  27.822  1.00  0.00    +0.000 C 
ATOM     54  F5  UNL A   1      42.938  33.272  28.556  1.00  0.00    +0.000 F 
ENDBRANCH   43   44
BRANCH   60   61
ATOM     65  F7  UNL A   1      41.419  26.516  34.631  1.00  0.00    +0.000 F 
ATOM     66  C52 UNL A   1      42.304  28.254  35.959  1.00  0.00    +0.000 C 
ATOM     67  F8  UNL A   1      42.251  27.471  37.045  1.00  0.00    +0.000 F 
ATOM     68  C53 UNL A   1      42.802  29.544  36.054  1.00  0.00    +0.000 C 
ATOM     69  F9  UNL A   1      43.251  30.002  37.231  1.00  0.00    +0.000 F 
ATOM     70  C54 UNL A   1      42.864  30.360  34.928  1.00  0.00    +0.000 C 
ATOM     71  F10 UNL A   1      43.369  31.597  35.053  1.00  0.00    +0.000 F 
ATOM     61  C49 UNL A   1      42.455  29.897  33.673  1.00  0.00    +0.000 C 
ATOM     62  C50 UNL A   1      41.985  28.573  33.596  1.00  0.00    +0.000 C 
ATOM     63  F6  UNL A   1      41.662  28.026  32.418  1.00  0.00    +0.000 F 
ATOM     64  C51 UNL A   1      41.887  27.769  34.731  1.00  0.00    +0.000 C 
ENDBRANCH   60   61
BRANCH   75   76
ATOM     76  C58 UNL A   1      36.998  31.702  31.223  1.00  0.00    +0.000 C 
ATOM     77  C59 UNL A   1      36.242  32.109  32.332  1.00  0.00    +0.000 C 
ATOM     78  F11 UNL A   1      36.529  31.631  33.552  1.00  0.00    +0.000 F 
ATOM     79  C60 UNL A   1      35.244  33.083  32.217  1.00  0.00    +0.000 C 
ATOM     80  F12 UNL A   1      34.572  33.490  33.302  1.00  0.00    +0.000 F 
ATOM     81  C61 UNL A   1      35.012  33.700  31.000  1.00  0.00    +0.000 C 
ATOM     82  F13 UNL A   1      34.121  34.695  30.898  1.00  0.00    +0.000 F 
ATOM     83  C62 UNL A   1      35.762  33.328  29.900  1.00  0.00    +0.000 C 
ATOM     84  F14 UNL A   1      35.673  34.035  28.772  1.00  0.00    +0.000 F 
ATOM     85  C63 UNL A   1      36.708  32.315  29.994  1.00  0.00    +0.000 C 
ATOM     86  F15 UNL A   1      37.436  32.036  28.901  1.00  0.00    +0.000 F 
ENDBRANCH   75   76
TORSDOF 20
ENDMDL
MODEL 3
REMARK VINA RESULT:      -9.4      2.021      3.703
ROOT
ATOM    135  H36 UNL A   1      46.344  29.604  30.333  1.00  0.00    +0.000 H 
ATOM    136  H37 UNL A   1      44.897  29.368  32.555  1.00  0.00    +0.000 H 
ATOM    137  H38 UNL A   1      43.792  32.713  30.574  1.00  0.00    +0.000 H 
ATOM    138  H39 UNL A   1      36.850  28.348  30.472  1.00  0.00    +0.000 H 
ATOM    139  H40 UNL A   1      38.548  26.656  29.606  1.00  0.00    +0.000 H 
ATOM    140  H41 UNL A   1      40.564  30.250  30.098  1.00  0.00    +0.000 H 
ATOM    141  H42 UNL A   1      39.342  33.196  29.687  1.00  0.00    +0.000 H 
ATOM    142  H43 UNL A   1      41.865  32.960  30.179  1.00  0.00    +0.000 H 
ATOM    143  H44 UNL A   1      43.722  30.063  25.750  1.00  0.00    +0.000 H 
ATOM    144  H45 UNL A   1      41.509  28.762  25.982  1.00  0.00    +0.000 H 
ATOM     39  C34 UNL A   1      41.011  27.903  28.678  1.00  0.00    +0.000 C 
ATOM     40  C35 UNL A   1      42.089  28.799  28.178  1.00  0.00    +0.000 C 
ATOM     41  N3  UNL A   1      43.074  29.306  28.843  1.00  0.00    +0.000 N 
ATOM     42  C36 UNL A   1      43.768  30.115  27.946  1.00  0.00    +0.000 C 
ATOM     43  C37 UNL A   1      44.525  31.160  28.384  1.00  0.00    +0.000 C 
ATOM     55  C44 UNL A   1      44.806  31.036  29.792  1.00  0.00    +0.000 C 
ATOM     56  C45 UNL A   1      45.477  30.111  30.569  1.00  0.00    +0.000 C 
ATOM     57  C46 UNL A   1      44.711  30.009  31.767  1.00  0.00    +0.000 C 
ATOM     58  C47 UNL A   1      43.665  30.927  31.687  1.00  0.00    +0.000 C 
ATOM     59  N4  UNL A   1      44.035  31.763  30.665  1.00  0.00    +0.000 N 
ATOM     60  C48 UNL A   1      42.405  31.030  32.379  1.00  0.00    +0.000 C 
ATOM     72  C55 UNL A   1      41.321  31.722  31.926  1.00  0.00    +0.000 C 
ATOM     73  N5  UNL A   1      40.054  31.438  32.409  1.00  0.00    +0.000 N 
ATOM     74  C56 UNL A   1      39.256  31.754  31.429  1.00  0.00    +0.000 C 
ATOM     75  C57 UNL A   1      38.079  30.938  31.057  1.00  0.00    +0.000 C 
ATOM     87  C64 UNL A   1      38.539  29.778  30.528  1.00  0.00    +0.000 C 
ATOM     88  C65 UNL A   1      37.848  28.534  30.283  1.00  0.00    +0.000 C 
ATOM     89  C66 UNL A   1      38.732  27.659  29.764  1.00  0.00    +0.000 C 
ATOM     90  C67 UNL A   1      39.995  28.343  29.456  1.00  0.00    +0.000 C 
ATOM     91  N6  UNL A   1      39.846  29.580  30.035  1.00  0.00    +0.000 N 
ATOM     92  C68 UNL A   1      39.810  32.642  30.421  1.00  0.00    +0.000 C 
ATOM     93  C69 UNL A   1      41.105  32.528  30.726  1.00  0.00    +0.000 C 
ATOM     94  C70 UNL A   1      43.274  29.782  26.637  1.00  0.00    +0.000 C 
ATOM     95  C71 UNL A   1      42.156  29.060  26.730  1.00  0.00    +0.000 C 
ENDROOT
BRANCH   39   38
ATOM     97  C73 UNL A   1      41.888  24.390  27.988  1.00  0.00    +0.000 C 
ATOM     35  C30 UNL A   1      40.918  24.023  27.063  1.00  0.00    +0.000 C 
ATOM     36  C31 UNL A   1      40.028  24.968  26.543  1.00  0.00    +0.000 C 
ATOM    133  H34 UNL A   1      39.343  24.702  25.818  1.00  0.00    +0.000 H 
ATOM     37  C32 UNL A   1      40.084  26.275  27.022  1.00  0.00    +0.000 C 
ATOM     38  C33 UNL A   1      40.976  26.584  28.058  1.00  0.00    +0.000 C 
ATOM    134  H35 UNL A   1      39.477  27.006  26.619  1.00  0.00    +0.000 H 
ATOM    145  H46 UNL A   1      42.379  25.816  29.433  1.00  0.00    +0.000 H 
ATOM    146  H47 UNL A   1      42.659  23.742  28.217  1.00  0.00    +0.000 H 
ATOM     96  C72 UNL A   1      41.817  25.614  28.592  1.00  0.00    +0.000 C 
BRANCH   35   33
ATOM     33  C29 UNL A   1      40.838  22.597  26.686  1.00  0.00    +0.000 C 
ATOM     34  O2  UNL A   1      39.980  21.880  27.149  1.00  0.00    +0.000 O 
BRANCH   33   32
ATOM    132  H33 UNL A   1      41.710  22.442  24.860  1.00  0.00    +0.000 H 
ATOM     32  N2  UNL A   1      41.777  22.112  25.784  1.00  0.00    +0.000 N 
BRANCH   32   31
ATOM    130  H31 UNL A   1      43.072  21.187  27.110  1.00  0.00    +0.000 H 
ATOM    131  H32 UNL A   1      42.531  20.196  25.751  1.00  0.00    +0.000 H 
ATOM     31  C28 UNL A   1      42.857  21.166  26.063  1.00  0.00    +0.000 C 
BRANCH   31   30
ATOM    129  H30 UNL A   1      43.835  21.698  24.287  1.00  0.00    +0.000 H 
ATOM     30  C27 UNL A   1      44.126  21.498  25.297  1.00  0.00    +0.000 C 
ATOM    128  H29 UNL A   1      44.794  20.666  25.376  1.00  0.00    +0.000 H 
BRANCH   30   29
ATOM     29  C26 UNL A   1      44.854  22.752  25.807  1.00  0.00    +0.000 C 
ATOM    126  H27 UNL A   1      44.355  23.076  26.698  1.00  0.00    +0.000 H 
ATOM    127  H28 UNL A   1      45.870  22.449  25.948  1.00  0.00    +0.000 H 
BRANCH   29   28
ATOM    124  H25 UNL A   1      45.880  24.409  24.959  1.00  0.00    +0.000 H 
ATOM     28  C25 UNL A   1      44.919  23.951  24.849  1.00  0.00    +0.000 C 
ATOM    125  H26 UNL A   1      44.738  23.556  23.871  1.00  0.00    +0.000 H 
BRANCH   28   27
ATOM    122  H23 UNL A   1      43.497  25.344  24.111  1.00  0.00    +0.000 H 
ATOM     27  C24 UNL A   1      43.857  25.029  25.069  1.00  0.00    +0.000 C 
ATOM    123  H24 UNL A   1      43.096  24.586  25.676  1.00  0.00    +0.000 H 
BRANCH   27   26
ATOM    121  H22 UNL A   1      45.066  25.936  26.545  1.00  0.00    +0.000 H 
ATOM     26  C23 UNL A   1      44.349  26.263  25.821  1.00  0.00    +0.000 C 
ATOM    120  H21 UNL A   1      43.511  26.740  26.284  1.00  0.00    +0.000 H 
BRANCH   26   25
ATOM     25  N1  UNL A   1      45.005  27.216  24.958  1.00  0.00    +0.000 N 
ATOM    119  H20 UNL A   1      44.452  27.582  24.230  1.00  0.00    +0.000 H 
BRANCH   25   23
ATOM     23  C22 UNL A   1      46.289  27.680  25.014  1.00  0.00    +0.000 C 
ATOM     24  O1  UNL A   1      46.451  28.877  25.261  1.00  0.00    +0.000 O 
BRANCH   23   22
ATOM    118  H19 UNL A   1      47.898  27.107  23.791  1.00  0.00    +0.000 H 
ATOM    117  H18 UNL A   1      47.110  25.760  24.646  1.00  0.00    +0.000 H 
ATOM     22  C21 UNL A   1      47.469  26.766  24.709  1.00  0.00    +0.000 C 
BRANCH   22   21
ATOM      2  C2  UNL A   1      52.028  27.505  24.680  1.00  0.00    +0.000 C 
ATOM     99  C74 UNL A   1      50.535  27.685  24.275  1.00  0.00    +0.000 C 
ATOM      4  C4  UNL A   1      52.013  27.626  26.241  1.00  0.00    +0.000 C 
ATOM      5  C5  UNL A   1      50.630  27.205  26.570  1.00  0.00    +0.000 C 
ATOM     98  N7  UNL A   1      49.823  27.239  25.467  1.00  0.00    +0.000 N 
ATOM      6  C6  UNL A   1      49.873  26.777  27.625  1.00  0.00    +0.000 C 
ATOM    106  H7  UNL A   1      52.199  28.631  26.555  1.00  0.00    +0.000 H 
ATOM    107  H8  UNL A   1      52.767  27.043  26.725  1.00  0.00    +0.000 H 
ATOM     13  C13 UNL A   1      48.548  26.541  27.112  1.00  0.00    +0.000 C 
ATOM    147  H48 UNL A   1      50.289  27.079  23.429  1.00  0.00    +0.000 H 
ATOM    148  H49 UNL A   1      50.292  28.686  23.986  1.00  0.00    +0.000 H 
ATOM     21  C20 UNL A   1      48.555  26.814  25.743  1.00  0.00    +0.000 C 
BRANCH    2    1
ATOM      1  C1  UNL A   1      52.911  28.568  24.027  1.00  0.00    +0.000 C 
ATOM    100  H1  UNL A   1      52.830  28.495  22.963  1.00  0.00    +0.000 H 
ATOM    101  H2  UNL A   1      53.929  28.414  24.318  1.00  0.00    +0.000 H 
ATOM    102  H3  UNL A   1      52.593  29.540  24.343  1.00  0.00    +0.000 H 
ENDBRANCH    2    1
BRANCH    2    3
ATOM    105  H6  UNL A   1      52.100  25.368  24.894  1.00  0.00    +0.000 H 
ATOM      3  C3  UNL A   1      52.548  26.113  24.270  1.00  0.00    +0.000 C 
ATOM    103  H4  UNL A   1      53.612  26.082  24.385  1.00  0.00    +0.000 H 
ATOM    104  H5  UNL A   1      52.294  25.925  23.248  1.00  0.00    +0.000 H 
ENDBRANCH    2    3
BRANCH    6    7
ATOM      7  C7  UNL A   1      50.310  26.635  28.997  1.00  0.00    +0.000 C 
ATOM      8  C8  UNL A   1      50.408  27.759  29.820  1.00  0.00    +0.000 C 
ATOM      9  C9  UNL A   1      50.538  27.593  31.198  1.00  0.00    +0.000 C 
ATOM     10  C10 UNL A   1      50.586  26.311  31.751  1.00  0.00    +0.000 C 
ATOM     11  C11 UNL A   1      50.553  25.189  30.926  1.00  0.00    +0.000 C 
ATOM     12  C12 UNL A   1      50.413  25.351  29.550  1.00  0.00    +0.000 C 
ATOM    108  H9  UNL A   1      50.385  28.706  29.411  1.00  0.00    +0.000 H 
ATOM    109  H10 UNL A   1      50.599  28.421  31.813  1.00  0.00    +0.000 H 
ATOM    111  H12 UNL A   1      50.631  24.244  31.333  1.00  0.00    +0.000 H 
ATOM    112  H13 UNL A   1      50.387  24.523  28.935  1.00  0.00    +0.000 H 
ATOM    110  H11 UNL A   1      50.645  26.193  32.775  1.00  0.00    +0.000 H 
ENDBRANCH    6    7
BRANCH   13   14
ATOM     14  C14 UNL A   1      47.393  26.124  27.900  1.00  0.00    +0.000 C 
ATOM     15  C15 UNL A   1      46.768  27.049  28.750  1.00  0.00    +0.000 C 
ATOM     16  C16 UNL A   1      45.771  26.637  29.637  1.00  0.00    +0.000 C 
ATOM    113  H14 UNL A   1      47.048  28.043  28.718  1.00  0.00    +0.000 H 
ATOM     17  C17 UNL A   1      45.385  25.299  29.668  1.00  0.00    +0.000 C 
ATOM     19  C18 UNL A   1      45.993  24.371  28.825  1.00  0.00    +0.000 C 
ATOM     20  C19 UNL A   1      47.007  24.782  27.956  1.00  0.00    +0.000 C 
ATOM    116  H17 UNL A   1      47.474  24.089  27.350  1.00  0.00    +0.000 H 
ATOM    114  H15 UNL A   1      45.322  27.321  30.267  1.00  0.00    +0.000 H 
ATOM    115  H16 UNL A   1      45.695  23.383  28.844  1.00  0.00    +0.000 H 
ATOM     18 Cl1  UNL A   1      44.173  24.783  30.775  1.00  0.00    +0.000 Cl
ENDBRANCH   13   14
ENDBRANCH   22   21
ENDBRANCH   23   22
ENDBRANCH   25   23
ENDBRANCH   26   25
ENDBRANCH   27   26
ENDBRANCH   28   27
ENDBRANCH   29   28
ENDBRANCH   30   29
ENDBRANCH   31   30
ENDBRANCH   32   31
ENDBRANCH   33   32
ENDBRANCH   35   33
ENDBRANCH   39   38
BRANCH   43   44
ATOM     44  C38 UNL A   1      44.705  32.467  27.643  1.00  0.00    +0.000 C 
ATOM     45  C39 UNL A   1      45.881  32.671  26.890  1.00  0.00    +0.000 C 
ATOM     46  F1  UNL A   1      46.704  31.649  26.616  1.00  0.00    +0.000 F 
ATOM     47  C40 UNL A   1      46.287  33.944  26.477  1.00  0.00    +0.000 C 
ATOM     48  F2  UNL A   1      47.474  34.102  25.878  1.00  0.00    +0.000 F 
ATOM     49  C41 UNL A   1      45.504  35.051  26.746  1.00  0.00    +0.000 C 
ATOM     50  F3  UNL A   1      45.920  36.279  26.407  1.00  0.00    +0.000 F 
ATOM     51  C42 UNL A   1      44.311  34.885  27.413  1.00  0.00    +0.000 C 
ATOM     52  F4  UNL A   1      43.544  35.948  27.696  1.00  0.00    +0.000 F 
ATOM     53  C43 UNL A   1      43.930  33.625  27.873  1.00  0.00    +0.000 C 
ATOM     54  F5  UNL A   1      42.833  33.613  28.638  1.00  0.00    +0.000 F 
ENDBRANCH   43   44
BRANCH   60   61
ATOM     65  F7  UNL A   1      41.370  26.676  34.473  1.00  0.00    +0.000 F 
ATOM     66  C52 UNL A   1      42.039  28.476  35.843  1.00  0.00    +0.000 C 
ATOM     67  F8  UNL A   1      41.984  27.691  36.928  1.00  0.00    +0.000 F 
ATOM     68  C53 UNL A   1      42.429  29.801  35.963  1.00  0.00    +0.000 C 
ATOM     69  F9  UNL A   1      42.772  30.291  37.162  1.00  0.00    +0.000 F 
ATOM     70  C54 UNL A   1      42.495  30.620  34.839  1.00  0.00    +0.000 C 
ATOM     71  F10 UNL A   1      42.894  31.892  34.988  1.00  0.00    +0.000 F 
ATOM     61  C49 UNL A   1      42.196  30.127  33.565  1.00  0.00    +0.000 C 
ATOM     62  C50 UNL A   1      41.835  28.771  33.465  1.00  0.00    +0.000 C 
ATOM     63  F6  UNL A   1      41.625  28.202  32.272  1.00  0.00    +0.000 F 
ATOM     64  C51 UNL A   1      41.733  27.961  34.596  1.00  0.00    +0.000 C 
ENDBRANCH   60   61
BRANCH   75   76
ATOM     76  C58 UNL A   1      36.762  31.562  30.833  1.00  0.00    +0.000 C 
ATOM     77  C59 UNL A   1      35.905  31.875  31.900  1.00  0.00    +0.000 C 
ATOM     78  F11 UNL A   1      36.145  31.375  33.121  1.00  0.00    +0.000 F 
ATOM     79  C60 UNL A   1      34.849  32.777  31.745  1.00  0.00    +0.000 C 
ATOM     80  F12 UNL A   1      34.077  33.097  32.793  1.00  0.00    +0.000 F 
ATOM     81  C61 UNL A   1      34.654  33.420  30.535  1.00  0.00    +0.000 C 
ATOM     82  F13 UNL A   1      33.701  34.352  30.401  1.00  0.00    +0.000 F 
ATOM     83  C62 UNL A   1      35.501  33.141  29.478  1.00  0.00    +0.000 C 
ATOM     84  F14 UNL A   1      35.436  33.880  28.369  1.00  0.00    +0.000 F 
ATOM     85  C63 UNL A   1      36.511  32.196  29.607  1.00  0.00    +0.000 C 
ATOM     86  F15 UNL A   1      37.329  32.009  28.559  1.00  0.00    +0.000 F 
ENDBRANCH   75   76
TORSDOF 20
ENDMDL
MODEL 4
REMARK VINA RESULT:      -9.1      1.760      2.683
ROOT
ATOM    135  H36 UNL A   1      46.336  29.506  30.344  1.00  0.00    +0.000 H 
ATOM    136  H37 UNL A   1      44.891  29.285  32.569  1.00  0.00    +0.000 H 
ATOM    137  H38 UNL A   1      43.804  32.632  30.580  1.00  0.00    +0.000 H 
ATOM    138  H39 UNL A   1      36.834  28.313  30.499  1.00  0.00    +0.000 H 
ATOM    139  H40 UNL A   1      38.520  26.607  29.635  1.00  0.00    +0.000 H 
ATOM    140  H41 UNL A   1      40.561  30.189  30.115  1.00  0.00    +0.000 H 
ATOM    141  H42 UNL A   1      39.357  33.142  29.698  1.00  0.00    +0.000 H 
ATOM    142  H43 UNL A   1      41.879  32.890  30.187  1.00  0.00    +0.000 H 
ATOM    143  H44 UNL A   1      43.711  29.970  25.764  1.00  0.00    +0.000 H 
ATOM    144  H45 UNL A   1      41.490  28.685  26.002  1.00  0.00    +0.000 H 
ATOM     39  C34 UNL A   1      40.990  27.836  28.700  1.00  0.00    +0.000 C 
ATOM     40  C35 UNL A   1      42.073  28.723  28.197  1.00  0.00    +0.000 C 
ATOM     41  N3  UNL A   1      43.062  29.225  28.859  1.00  0.00    +0.000 N 
ATOM     42  C36 UNL A   1      43.761  30.028  27.959  1.00  0.00    +0.000 C 
ATOM     43  C37 UNL A   1      44.525  31.069  28.393  1.00  0.00    +0.000 C 
ATOM     55  C44 UNL A   1      44.807  30.947  29.802  1.00  0.00    +0.000 C 
ATOM     56  C45 UNL A   1      45.473  30.019  30.580  1.00  0.00    +0.000 C 
ATOM     57  C46 UNL A   1      44.708  29.925  31.779  1.00  0.00    +0.000 C 
ATOM     58  C47 UNL A   1      43.668  30.850  31.698  1.00  0.00    +0.000 C 
ATOM     59  N4  UNL A   1      44.042  31.681  30.673  1.00  0.00    +0.000 N 
ATOM     60  C48 UNL A   1      42.410  30.963  32.391  1.00  0.00    +0.000 C 
ATOM     72  C55 UNL A   1      41.330  31.661  31.938  1.00  0.00    +0.000 C 
ATOM     73  N5  UNL A   1      40.061  31.387  32.423  1.00  0.00    +0.000 N 
ATOM     74  C56 UNL A   1      39.264  31.705  31.444  1.00  0.00    +0.000 C 
ATOM     75  C57 UNL A   1      38.081  30.896  31.075  1.00  0.00    +0.000 C 
ATOM     87  C64 UNL A   1      38.533  29.732  30.548  1.00  0.00    +0.000 C 
ATOM     88  C65 UNL A   1      37.833  28.492  30.308  1.00  0.00    +0.000 C 
ATOM     89  C66 UNL A   1      38.711  27.609  29.790  1.00  0.00    +0.000 C 
ATOM     90  C67 UNL A   1      39.978  28.285  29.478  1.00  0.00    +0.000 C 
ATOM     91  N6  UNL A   1      39.838  29.524  30.055  1.00  0.00    +0.000 N 
ATOM     92  C68 UNL A   1      39.822  32.587  30.432  1.00  0.00    +0.000 C 
ATOM     93  C69 UNL A   1      41.117  32.465  30.737  1.00  0.00    +0.000 C 
ATOM     94  C70 UNL A   1      43.263  29.695  26.651  1.00  0.00    +0.000 C 
ATOM     95  C71 UNL A   1      42.140  28.980  26.747  1.00  0.00    +0.000 C 
ENDROOT
BRANCH   39   38
ATOM     97  C73 UNL A   1      41.701  24.262  28.142  1.00  0.00    +0.000 C 
ATOM     35  C30 UNL A   1      40.841  23.953  27.095  1.00  0.00    +0.000 C 
ATOM     36  C31 UNL A   1      40.099  24.952  26.456  1.00  0.00    +0.000 C 
ATOM    133  H34 UNL A   1      39.501  24.727  25.646  1.00  0.00    +0.000 H 
ATOM     37  C32 UNL A   1      40.182  26.257  26.936  1.00  0.00    +0.000 C 
ATOM     38  C33 UNL A   1      40.946  26.515  28.084  1.00  0.00    +0.000 C 
ATOM    134  H35 UNL A   1      39.689  27.024  26.454  1.00  0.00    +0.000 H 
ATOM    145  H46 UNL A   1      42.092  25.666  29.638  1.00  0.00    +0.000 H 
ATOM    146  H47 UNL A   1      42.385  23.565  28.474  1.00  0.00    +0.000 H 
ATOM     96  C72 UNL A   1      41.636  25.495  28.728  1.00  0.00    +0.000 C 
BRANCH   35   33
ATOM     33  C29 UNL A   1      40.712  22.532  26.713  1.00  0.00    +0.000 C 
ATOM     34  O2  UNL A   1      39.805  21.855  27.140  1.00  0.00    +0.000 O 
BRANCH   33   32
ATOM    132  H33 UNL A   1      41.558  22.222  24.894  1.00  0.00    +0.000 H 
ATOM     32  N2  UNL A   1      41.663  22.006  25.848  1.00  0.00    +0.000 N 
BRANCH   32   31
ATOM    130  H31 UNL A   1      42.931  21.186  27.267  1.00  0.00    +0.000 H 
ATOM    131  H32 UNL A   1      42.605  20.174  25.854  1.00  0.00    +0.000 H 
ATOM     31  C28 UNL A   1      42.806  21.165  26.205  1.00  0.00    +0.000 C 
BRANCH   31   30
ATOM    129  H30 UNL A   1      43.936  21.601  24.495  1.00  0.00    +0.000 H 
ATOM     30  C27 UNL A   1      44.094  21.636  25.552  1.00  0.00    +0.000 C 
ATOM    128  H29 UNL A   1      44.888  20.995  25.872  1.00  0.00    +0.000 H 
BRANCH   30   29
ATOM     29  C26 UNL A   1      44.475  23.085  25.896  1.00  0.00    +0.000 C 
ATOM    126  H27 UNL A   1      43.932  23.362  26.777  1.00  0.00    +0.000 H 
ATOM    127  H28 UNL A   1      45.538  23.077  26.011  1.00  0.00    +0.000 H 
BRANCH   29   28
ATOM    124  H25 UNL A   1      45.107  24.344  24.304  1.00  0.00    +0.000 H 
ATOM     28  C25 UNL A   1      44.192  24.149  24.824  1.00  0.00    +0.000 C 
ATOM    125  H26 UNL A   1      43.420  23.742  24.204  1.00  0.00    +0.000 H 
BRANCH   28   27
ATOM    122  H23 UNL A   1      42.713  25.670  24.870  1.00  0.00    +0.000 H 
ATOM     27  C24 UNL A   1      43.654  25.482  25.344  1.00  0.00    +0.000 C 
ATOM    123  H24 UNL A   1      43.575  25.385  26.407  1.00  0.00    +0.000 H 
BRANCH   27   26
ATOM    121  H22 UNL A   1      44.367  27.407  25.844  1.00  0.00    +0.000 H 
ATOM     26  C23 UNL A   1      44.565  26.680  25.085  1.00  0.00    +0.000 C 
ATOM    120  H21 UNL A   1      44.357  27.063  24.108  1.00  0.00    +0.000 H 
BRANCH   26   25
ATOM     25  N1  UNL A   1      45.965  26.340  25.161  1.00  0.00    +0.000 N 
ATOM    119  H20 UNL A   1      46.280  25.683  24.498  1.00  0.00    +0.000 H 
BRANCH   25   23
ATOM     23  C22 UNL A   1      46.913  26.804  26.028  1.00  0.00    +0.000 C 
ATOM     24  O1  UNL A   1      48.017  26.252  26.013  1.00  0.00    +0.000 O 
BRANCH   23   22
ATOM    118  H19 UNL A   1      45.528  28.000  27.061  1.00  0.00    +0.000 H 
ATOM    117  H18 UNL A   1      47.069  28.810  26.694  1.00  0.00    +0.000 H 
ATOM     22  C21 UNL A   1      46.593  27.911  27.025  1.00  0.00    +0.000 C 
BRANCH   22   21
ATOM      2  C2  UNL A   1      44.958  25.502  30.610  1.00  0.00    +0.000 C 
ATOM     99  C74 UNL A   1      45.273  25.840  29.123  1.00  0.00    +0.000 C 
ATOM      4  C4  UNL A   1      46.340  25.647  31.331  1.00  0.00    +0.000 C 
ATOM      5  C5  UNL A   1      47.048  26.608  30.451  1.00  0.00    +0.000 C 
ATOM     98  N7  UNL A   1      46.439  26.708  29.231  1.00  0.00    +0.000 N 
ATOM      6  C6  UNL A   1      48.122  27.455  30.451  1.00  0.00    +0.000 C 
ATOM    106  H7  UNL A   1      46.854  24.710  31.377  1.00  0.00    +0.000 H 
ATOM    107  H8  UNL A   1      46.264  25.969  32.348  1.00  0.00    +0.000 H 
ATOM     13  C13 UNL A   1      48.143  28.091  29.158  1.00  0.00    +0.000 C 
ATOM    147  H48 UNL A   1      44.454  26.350  28.661  1.00  0.00    +0.000 H 
ATOM    148  H49 UNL A   1      45.443  24.974  28.518  1.00  0.00    +0.000 H 
ATOM     21  C20 UNL A   1      47.055  27.620  28.422  1.00  0.00    +0.000 C 
BRANCH    2    1
ATOM      1  C1  UNL A   1      44.379  24.094  30.748  1.00  0.00    +0.000 C 
ATOM    100  H1  UNL A   1      44.054  23.939  31.755  1.00  0.00    +0.000 H 
ATOM    101  H2  UNL A   1      45.130  23.374  30.500  1.00  0.00    +0.000 H 
ATOM    102  H3  UNL A   1      43.547  23.984  30.084  1.00  0.00    +0.000 H 
ENDBRANCH    2    1
BRANCH    2    3
ATOM    105  H6  UNL A   1      43.811  27.317  30.520  1.00  0.00    +0.000 H 
ATOM      3  C3  UNL A   1      43.952  26.507  31.204  1.00  0.00    +0.000 C 
ATOM    103  H4  UNL A   1      44.332  26.886  32.131  1.00  0.00    +0.000 H 
ATOM    104  H5  UNL A   1      43.017  26.017  31.376  1.00  0.00    +0.000 H 
ENDBRANCH    2    3
BRANCH    6    7
ATOM      7  C7  UNL A   1      49.075  27.637  31.523  1.00  0.00    +0.000 C 
ATOM      8  C8  UNL A   1      48.898  28.666  32.451  1.00  0.00    +0.000 C 
ATOM      9  C9  UNL A   1      49.635  28.661  33.634  1.00  0.00    +0.000 C 
ATOM     10  C10 UNL A   1      50.556  27.642  33.884  1.00  0.00    +0.000 C 
ATOM     11  C11 UNL A   1      50.781  26.649  32.932  1.00  0.00    +0.000 C 
ATOM     12  C12 UNL A   1      50.040  26.646  31.754  1.00  0.00    +0.000 C 
ATOM    108  H9  UNL A   1      48.226  29.427  32.261  1.00  0.00    +0.000 H 
ATOM    109  H10 UNL A   1      49.499  29.413  34.329  1.00  0.00    +0.000 H 
ATOM    111  H12 UNL A   1      51.493  25.921  33.100  1.00  0.00    +0.000 H 
ATOM    112  H13 UNL A   1      50.202  25.913  31.047  1.00  0.00    +0.000 H 
ATOM    110  H11 UNL A   1      51.073  27.621  34.778  1.00  0.00    +0.000 H 
ENDBRANCH    6    7
BRANCH   13   14
ATOM     14  C14 UNL A   1      49.153  29.035  28.693  1.00  0.00    +0.000 C 
ATOM     15  C15 UNL A   1      50.363  28.550  28.173  1.00  0.00    +0.000 C 
ATOM     16  C16 UNL A   1      51.410  29.425  27.876  1.00  0.00    +0.000 C 
ATOM    113  H14 UNL A   1      50.479  27.537  28.007  1.00  0.00    +0.000 H 
ATOM     17  C17 UNL A   1      51.246  30.793  28.086  1.00  0.00    +0.000 C 
ATOM     19  C18 UNL A   1      50.048  31.288  28.597  1.00  0.00    +0.000 C 
ATOM     20  C19 UNL A   1      49.011  30.407  28.915  1.00  0.00    +0.000 C 
ATOM    116  H17 UNL A   1      48.134  30.774  29.317  1.00  0.00    +0.000 H 
ATOM    114  H15 UNL A   1      52.301  29.061  27.503  1.00  0.00    +0.000 H 
ATOM    115  H16 UNL A   1      49.928  32.303  28.740  1.00  0.00    +0.000 H 
ATOM     18 Cl1  UNL A   1      52.541  31.873  27.744  1.00  0.00    +0.000 Cl
ENDBRANCH   13   14
ENDBRANCH   22   21
ENDBRANCH   23   22
ENDBRANCH   25   23
ENDBRANCH   26   25
ENDBRANCH   27   26
ENDBRANCH   28   27
ENDBRANCH   29   28
ENDBRANCH   30   29
ENDBRANCH   31   30
ENDBRANCH   32   31
ENDBRANCH   33   32
ENDBRANCH   35   33
ENDBRANCH   39   38
BRANCH   43   44
ATOM     44  C38 UNL A   1      44.712  32.373  27.649  1.00  0.00    +0.000 C 
ATOM     45  C39 UNL A   1      45.899  32.577  26.913  1.00  0.00    +0.000 C 
ATOM     46  F1  UNL A   1      46.728  31.555  26.656  1.00  0.00    +0.000 F 
ATOM     47  C40 UNL A   1      46.307  33.848  26.500  1.00  0.00    +0.000 C 
ATOM     48  F2  UNL A   1      47.503  34.007  25.917  1.00  0.00    +0.000 F 
ATOM     49  C41 UNL A   1      45.518  34.955  26.752  1.00  0.00    +0.000 C 
ATOM     50  F3  UNL A   1      45.935  36.182  26.412  1.00  0.00    +0.000 F 
ATOM     51  C42 UNL A   1      44.316  34.789  27.401  1.00  0.00    +0.000 C 
ATOM     52  F4  UNL A   1      43.542  35.851  27.668  1.00  0.00    +0.000 F 
ATOM     53  C43 UNL A   1      43.931  33.530  27.862  1.00  0.00    +0.000 C 
ATOM     54  F5  UNL A   1      42.823  33.518  28.611  1.00  0.00    +0.000 F 
ENDBRANCH   43   44
BRANCH   60   61
ATOM     65  F7  UNL A   1      41.248  26.647  34.500  1.00  0.00    +0.000 F 
ATOM     66  C52 UNL A   1      42.034  28.411  35.856  1.00  0.00    +0.000 C 
ATOM     67  F8  UNL A   1      41.976  27.624  36.940  1.00  0.00    +0.000 F 
ATOM     68  C53 UNL A   1      42.484  29.717  35.969  1.00  0.00    +0.000 C 
ATOM     69  F9  UNL A   1      42.883  30.187  37.159  1.00  0.00    +0.000 F 
ATOM     70  C54 UNL A   1      42.552  30.538  34.847  1.00  0.00    +0.000 C 
ATOM     71  F10 UNL A   1      43.011  31.791  34.988  1.00  0.00    +0.000 F 
ATOM     61  C49 UNL A   1      42.196  30.064  33.580  1.00  0.00    +0.000 C 
ATOM     62  C50 UNL A   1      41.774  28.726  33.486  1.00  0.00    +0.000 C 
ATOM     63  F6  UNL A   1      41.505  28.171  32.298  1.00  0.00    +0.000 F 
ATOM     64  C51 UNL A   1      41.670  27.915  34.617  1.00  0.00    +0.000 C 
ENDBRANCH   60   61
BRANCH   75   76
ATOM     76  C58 UNL A   1      36.768  31.528  30.852  1.00  0.00    +0.000 C 
ATOM     77  C59 UNL A   1      35.952  31.927  31.921  1.00  0.00    +0.000 C 
ATOM     78  F11 UNL A   1      36.223  31.505  33.165  1.00  0.00    +0.000 F 
ATOM     79  C60 UNL A   1      34.906  32.837  31.740  1.00  0.00    +0.000 C 
ATOM     80  F12 UNL A   1      34.174  33.239  32.787  1.00  0.00    +0.000 F 
ATOM     81  C61 UNL A   1      34.682  33.400  30.495  1.00  0.00    +0.000 C 
ATOM     82  F13 UNL A   1      33.740  34.339  30.329  1.00  0.00    +0.000 F 
ATOM     83  C62 UNL A   1      35.489  33.036  29.434  1.00  0.00    +0.000 C 
ATOM     84  F14 UNL A   1      35.400  33.700  28.280  1.00  0.00    +0.000 F 
ATOM     85  C63 UNL A   1      36.488  32.083  29.594  1.00  0.00    +0.000 C 
ATOM     86  F15 UNL A   1      37.268  31.811  28.536  1.00  0.00    +0.000 F 
ENDBRANCH   75   76
TORSDOF 20
ENDMDL
MODEL 5
REMARK VINA RESULT:      -9.1      4.032     10.553
ROOT
ATOM    135  H36 UNL A   1      43.213  31.810  33.323  1.00  0.00    +0.000 H 
ATOM    136  H37 UNL A   1      44.642  31.985  31.084  1.00  0.00    +0.000 H 
ATOM    137  H38 UNL A   1      44.687  28.171  32.421  1.00  0.00    +0.000 H 
ATOM    138  H39 UNL A   1      40.987  27.340  25.150  1.00  0.00    +0.000 H 
ATOM    139  H40 UNL A   1      39.639  29.224  26.214  1.00  0.00    +0.000 H 
ATOM    140  H41 UNL A   1      42.378  27.941  29.056  1.00  0.00    +0.000 H 
ATOM    141  H42 UNL A   1      43.462  24.938  29.443  1.00  0.00    +0.000 H 
ATOM    142  H43 UNL A   1      44.169  26.740  31.152  1.00  0.00    +0.000 H 
ATOM    143  H44 UNL A   1      39.279  28.261  33.438  1.00  0.00    +0.000 H 
ATOM    144  H45 UNL A   1      38.365  28.029  31.039  1.00  0.00    +0.000 H 
ATOM     39  C34 UNL A   1      40.000  29.378  29.100  1.00  0.00    +0.000 C 
ATOM     40  C35 UNL A   1      40.275  29.155  30.545  1.00  0.00    +0.000 C 
ATOM     41  N3  UNL A   1      41.267  29.598  31.243  1.00  0.00    +0.000 N 
ATOM     42  C36 UNL A   1      41.105  29.070  32.523  1.00  0.00    +0.000 C 
ATOM     43  C37 UNL A   1      42.171  28.905  33.355  1.00  0.00    +0.000 C 
ATOM     55  C44 UNL A   1      43.298  29.683  32.906  1.00  0.00    +0.000 C 
ATOM     56  C45 UNL A   1      43.535  31.032  32.728  1.00  0.00    +0.000 C 
ATOM     57  C46 UNL A   1      44.323  31.116  31.542  1.00  0.00    +0.000 C 
ATOM     58  C47 UNL A   1      44.584  29.817  31.108  1.00  0.00    +0.000 C 
ATOM     59  N4  UNL A   1      44.278  29.037  32.194  1.00  0.00    +0.000 N 
ATOM     60  C48 UNL A   1      44.987  29.279  29.833  1.00  0.00    +0.000 C 
ATOM     72  C55 UNL A   1      44.813  27.984  29.444  1.00  0.00    +0.000 C 
ATOM     73  N5  UNL A   1      44.830  27.646  28.101  1.00  0.00    +0.000 N 
ATOM     74  C56 UNL A   1      44.068  26.592  28.022  1.00  0.00    +0.000 C 
ATOM     75  C57 UNL A   1      43.110  26.374  26.916  1.00  0.00    +0.000 C 
ATOM     87  C64 UNL A   1      42.116  27.286  27.053  1.00  0.00    +0.000 C 
ATOM     88  C65 UNL A   1      41.109  27.706  26.108  1.00  0.00    +0.000 C 
ATOM     89  C66 UNL A   1      40.355  28.657  26.695  1.00  0.00    +0.000 C 
ATOM     90  C67 UNL A   1      40.701  28.766  28.118  1.00  0.00    +0.000 C 
ATOM     91  N6  UNL A   1      41.832  27.994  28.239  1.00  0.00    +0.000 N 
ATOM     92  C68 UNL A   1      43.834  25.884  29.270  1.00  0.00    +0.000 C 
ATOM     93  C69 UNL A   1      44.245  26.824  30.127  1.00  0.00    +0.000 C 
ATOM     94  C70 UNL A   1      39.768  28.540  32.573  1.00  0.00    +0.000 C 
ATOM     95  C71 UNL A   1      39.251  28.462  31.346  1.00  0.00    +0.000 C 
ENDROOT
BRANCH   39   38
ATOM     97  C73 UNL A   1      36.611  30.023  27.802  1.00  0.00    +0.000 C 
ATOM     35  C30 UNL A   1      36.326  31.274  28.335  1.00  0.00    +0.000 C 
ATOM     36  C31 UNL A   1      37.302  31.997  29.029  1.00  0.00    +0.000 C 
ATOM    133  H34 UNL A   1      37.102  32.947  29.379  1.00  0.00    +0.000 H 
ATOM     37  C32 UNL A   1      38.547  31.409  29.240  1.00  0.00    +0.000 C 
ATOM     38  C33 UNL A   1      38.759  30.089  28.817  1.00  0.00    +0.000 C 
ATOM    134  H35 UNL A   1      39.303  31.938  29.701  1.00  0.00    +0.000 H 
ATOM    145  H46 UNL A   1      37.875  28.369  27.975  1.00  0.00    +0.000 H 
ATOM    146  H47 UNL A   1      35.961  29.585  27.130  1.00  0.00    +0.000 H 
ATOM     96  C72 UNL A   1      37.756  29.375  28.171  1.00  0.00    +0.000 C 
BRANCH   35   33
ATOM     33  C29 UNL A   1      34.951  31.788  28.176  1.00  0.00    +0.000 C 
ATOM     34  O2  UNL A   1      34.034  31.040  27.926  1.00  0.00    +0.000 O 
BRANCH   33   32
ATOM    132  H33 UNL A   1      35.252  33.742  27.717  1.00  0.00    +0.000 H 
ATOM     32  N2  UNL A   1      34.750  33.154  28.325  1.00  0.00    +0.000 N 
BRANCH   32   31
ATOM    130  H31 UNL A   1      33.546  34.746  28.880  1.00  0.00    +0.000 H 
ATOM    131  H32 UNL A   1      33.043  33.161  29.478  1.00  0.00    +0.000 H 
ATOM     31  C28 UNL A   1      33.870  33.813  29.291  1.00  0.00    +0.000 C 
BRANCH   31   30
ATOM    129  H30 UNL A   1      34.007  34.844  31.111  1.00  0.00    +0.000 H 
ATOM     30  C27 UNL A   1      34.564  34.076  30.616  1.00  0.00    +0.000 C 
ATOM    128  H29 UNL A   1      35.574  34.365  30.415  1.00  0.00    +0.000 H 
BRANCH   30   29
ATOM     29  C26 UNL A   1      34.586  32.864  31.561  1.00  0.00    +0.000 C 
ATOM    126  H27 UNL A   1      33.730  32.261  31.335  1.00  0.00    +0.000 H 
ATOM    127  H28 UNL A   1      35.528  32.387  31.384  1.00  0.00    +0.000 H 
BRANCH   29   28
ATOM    124  H25 UNL A   1      33.546  33.354  33.349  1.00  0.00    +0.000 H 
ATOM     28  C25 UNL A   1      34.560  33.160  33.068  1.00  0.00    +0.000 C 
ATOM    125  H26 UNL A   1      34.984  32.300  33.543  1.00  0.00    +0.000 H 
BRANCH   28   27
ATOM    122  H23 UNL A   1      35.156  35.192  32.911  1.00  0.00    +0.000 H 
ATOM     27  C24 UNL A   1      35.408  34.350  33.521  1.00  0.00    +0.000 C 
ATOM    123  H24 UNL A   1      35.189  34.502  34.557  1.00  0.00    +0.000 H 
BRANCH   27   26
ATOM    121  H22 UNL A   1      37.364  35.063  33.162  1.00  0.00    +0.000 H 
ATOM     26  C23 UNL A   1      36.916  34.128  33.425  1.00  0.00    +0.000 C 
ATOM    120  H21 UNL A   1      37.105  33.377  32.686  1.00  0.00    +0.000 H 
BRANCH   26   25
ATOM     25  N1  UNL A   1      37.496  33.702  34.676  1.00  0.00    +0.000 N 
ATOM    119  H20 UNL A   1      37.418  34.342  35.421  1.00  0.00    +0.000 H 
BRANCH   25   23
ATOM     23  C22 UNL A   1      38.140  32.533  34.967  1.00  0.00    +0.000 C 
ATOM     24  O1  UNL A   1      37.877  31.992  36.045  1.00  0.00    +0.000 O 
BRANCH   23   22
ATOM    118  H19 UNL A   1      38.727  31.830  33.076  1.00  0.00    +0.000 H 
ATOM    117  H18 UNL A   1      39.549  31.039  34.441  1.00  0.00    +0.000 H 
ATOM     22  C21 UNL A   1      39.195  31.961  34.029  1.00  0.00    +0.000 C 
BRANCH   22   21
ATOM      2  C2  UNL A   1      41.064  34.162  30.425  1.00  0.00    +0.000 C 
ATOM     99  C74 UNL A   1      39.944  33.591  31.343  1.00  0.00    +0.000 C 
ATOM      4  C4  UNL A   1      41.972  34.981  31.403  1.00  0.00    +0.000 C 
ATOM      5  C5  UNL A   1      41.722  34.303  32.697  1.00  0.00    +0.000 C 
ATOM     98  N7  UNL A   1      40.595  33.531  32.645  1.00  0.00    +0.000 N 
ATOM      6  C6  UNL A   1      42.254  34.178  33.951  1.00  0.00    +0.000 C 
ATOM    106  H7  UNL A   1      41.676  36.008  31.439  1.00  0.00    +0.000 H 
ATOM    107  H8  UNL A   1      43.003  35.001  31.119  1.00  0.00    +0.000 H 
ATOM     13  C13 UNL A   1      41.393  33.278  34.675  1.00  0.00    +0.000 C 
ATOM    147  H48 UNL A   1      39.638  32.618  31.018  1.00  0.00    +0.000 H 
ATOM    148  H49 UNL A   1      39.052  34.181  31.341  1.00  0.00    +0.000 H 
ATOM     21  C20 UNL A   1      40.372  32.866  33.817  1.00  0.00    +0.000 C 
BRANCH    2    1
ATOM      1  C1  UNL A   1      40.480  35.033  29.313  1.00  0.00    +0.000 C 
ATOM    100  H1  UNL A   1      41.005  35.965  29.277  1.00  0.00    +0.000 H 
ATOM    101  H2  UNL A   1      39.445  35.213  29.508  1.00  0.00    +0.000 H 
ATOM    102  H3  UNL A   1      40.583  34.529  28.374  1.00  0.00    +0.000 H 
ENDBRANCH    2    1
BRANCH    2    3
ATOM    105  H6  UNL A   1      41.641  32.956  28.741  1.00  0.00    +0.000 H 
ATOM      3  C3  UNL A   1      41.884  33.027  29.781  1.00  0.00    +0.000 C 
ATOM    103  H4  UNL A   1      41.651  32.101  30.265  1.00  0.00    +0.000 H 
ATOM    104  H5  UNL A   1      42.927  33.234  29.891  1.00  0.00    +0.000 H 
ENDBRANCH    2    3
BRANCH    6    7
ATOM      7  C7  UNL A   1      43.425  34.857  34.461  1.00  0.00    +0.000 C 
ATOM      8  C8  UNL A   1      43.284  35.974  35.286  1.00  0.00    +0.000 C 
ATOM      9  C9  UNL A   1      44.382  36.441  36.007  1.00  0.00    +0.000 C 
ATOM     10  C10 UNL A   1      45.620  35.805  35.892  1.00  0.00    +0.000 C 
ATOM     11  C11 UNL A   1      45.779  34.730  35.020  1.00  0.00    +0.000 C 
ATOM     12  C12 UNL A   1      44.683  34.255  34.306  1.00  0.00    +0.000 C 
ATOM    108  H9  UNL A   1      42.372  36.452  35.362  1.00  0.00    +0.000 H 
ATOM    109  H10 UNL A   1      44.280  37.260  36.628  1.00  0.00    +0.000 H 
ATOM    111  H12 UNL A   1      46.705  34.288  34.905  1.00  0.00    +0.000 H 
ATOM    112  H13 UNL A   1      44.795  33.459  33.661  1.00  0.00    +0.000 H 
ATOM    110  H11 UNL A   1      46.421  36.131  36.456  1.00  0.00    +0.000 H 
ENDBRANCH    6    7
BRANCH   13   14
ATOM     14  C14 UNL A   1      41.547  32.898  36.075  1.00  0.00    +0.000 C 
ATOM     15  C15 UNL A   1      40.915  33.660  37.070  1.00  0.00    +0.000 C 
ATOM     16  C16 UNL A   1      41.179  33.422  38.421  1.00  0.00    +0.000 C 
ATOM    113  H14 UNL A   1      40.249  34.402  36.801  1.00  0.00    +0.000 H 
ATOM     17  C17 UNL A   1      42.066  32.410  38.783  1.00  0.00    +0.000 C 
ATOM     19  C18 UNL A   1      42.696  31.643  37.805  1.00  0.00    +0.000 C 
ATOM     20  C19 UNL A   1      42.449  31.899  36.454  1.00  0.00    +0.000 C 
ATOM    116  H17 UNL A   1      42.935  31.346  35.731  1.00  0.00    +0.000 H 
ATOM    114  H15 UNL A   1      40.718  33.992  39.148  1.00  0.00    +0.000 H 
ATOM    115  H16 UNL A   1      43.343  30.887  38.079  1.00  0.00    +0.000 H 
ATOM     18 Cl1  UNL A   1      42.411  32.129  40.445  1.00  0.00    +0.000 Cl
ENDBRANCH   13   14
ENDBRANCH   22   21
ENDBRANCH   23   22
ENDBRANCH   25   23
ENDBRANCH   26   25
ENDBRANCH   27   26
ENDBRANCH   28   27
ENDBRANCH   29   28
ENDBRANCH   30   29
ENDBRANCH   31   30
ENDBRANCH   32   31
ENDBRANCH   33   32
ENDBRANCH   35   33
ENDBRANCH   39   38
BRANCH   43   44
ATOM     44  C38 UNL A   1      42.322  27.778  34.353  1.00  0.00    +0.000 C 
ATOM     45  C39 UNL A   1      42.887  26.557  33.926  1.00  0.00    +0.000 C 
ATOM     46  F1  UNL A   1      43.513  26.469  32.744  1.00  0.00    +0.000 F 
ATOM     47  C40 UNL A   1      42.743  25.376  34.661  1.00  0.00    +0.000 C 
ATOM     48  F2  UNL A   1      43.185  24.218  34.152  1.00  0.00    +0.000 F 
ATOM     49  C41 UNL A   1      42.086  25.381  35.876  1.00  0.00    +0.000 C 
ATOM     50  F3  UNL A   1      41.893  24.241  36.553  1.00  0.00    +0.000 F 
ATOM     51  C42 UNL A   1      41.587  26.568  36.365  1.00  0.00    +0.000 C 
ATOM     52  F4  UNL A   1      40.933  26.592  37.536  1.00  0.00    +0.000 F 
ATOM     53  C43 UNL A   1      41.680  27.736  35.610  1.00  0.00    +0.000 C 
ATOM     54  F5  UNL A   1      41.026  28.787  36.115  1.00  0.00    +0.000 F 
ENDBRANCH   43   44
BRANCH   60   61
ATOM     65  F7  UNL A   1      44.106  32.496  26.187  1.00  0.00    +0.000 F 
ATOM     66  C52 UNL A   1      46.313  32.239  26.980  1.00  0.00    +0.000 C 
ATOM     67  F8  UNL A   1      46.742  33.191  26.140  1.00  0.00    +0.000 F 
ATOM     68  C53 UNL A   1      47.204  31.619  27.843  1.00  0.00    +0.000 C 
ATOM     69  F9  UNL A   1      48.492  31.989  27.852  1.00  0.00    +0.000 F 
ATOM     70  C54 UNL A   1      46.764  30.633  28.721  1.00  0.00    +0.000 C 
ATOM     71  F10 UNL A   1      47.650  30.068  29.556  1.00  0.00    +0.000 F 
ATOM     61  C49 UNL A   1      45.417  30.261  28.777  1.00  0.00    +0.000 C 
ATOM     62  C50 UNL A   1      44.527  30.927  27.915  1.00  0.00    +0.000 C 
ATOM     63  F6  UNL A   1      43.210  30.695  27.974  1.00  0.00    +0.000 F 
ATOM     64  C51 UNL A   1      44.974  31.888  27.009  1.00  0.00    +0.000 C 
ENDBRANCH   60   61
BRANCH   75   76
ATOM     76  C58 UNL A   1      43.045  25.081  26.211  1.00  0.00    +0.000 C 
ATOM     77  C59 UNL A   1      44.013  24.709  25.266  1.00  0.00    +0.000 C 
ATOM     78  F11 UNL A   1      44.869  25.623  24.787  1.00  0.00    +0.000 F 
ATOM     79  C60 UNL A   1      44.174  23.376  24.874  1.00  0.00    +0.000 C 
ATOM     80  F12 UNL A   1      45.140  23.041  24.007  1.00  0.00    +0.000 F 
ATOM     81  C61 UNL A   1      43.402  22.383  25.450  1.00  0.00    +0.000 C 
ATOM     82  F13 UNL A   1      43.607  21.094  25.147  1.00  0.00    +0.000 F 
ATOM     83  C62 UNL A   1      42.457  22.727  26.398  1.00  0.00    +0.000 C 
ATOM     84  F14 UNL A   1      41.835  21.769  27.087  1.00  0.00    +0.000 F 
ATOM     85  C63 UNL A   1      42.247  24.057  26.744  1.00  0.00    +0.000 C 
ATOM     86  F15 UNL A   1      41.350  24.318  27.707  1.00  0.00    +0.000 F 
ENDBRANCH   75   76
TORSDOF 20
ENDMDL
MODEL 6
REMARK VINA RESULT:      -9.0      1.267      2.108
ROOT
ATOM    135  H36 UNL A   1      46.569  29.412  30.185  1.00  0.00    +0.000 H 
ATOM    136  H37 UNL A   1      45.204  29.217  32.463  1.00  0.00    +0.000 H 
ATOM    137  H38 UNL A   1      44.012  32.515  30.454  1.00  0.00    +0.000 H 
ATOM    138  H39 UNL A   1      37.092  28.123  30.693  1.00  0.00    +0.000 H 
ATOM    139  H40 UNL A   1      38.765  26.419  29.801  1.00  0.00    +0.000 H 
ATOM    140  H41 UNL A   1      40.782  30.030  30.146  1.00  0.00    +0.000 H 
ATOM    141  H42 UNL A   1      39.532  32.962  29.718  1.00  0.00    +0.000 H 
ATOM    142  H43 UNL A   1      42.072  32.746  30.124  1.00  0.00    +0.000 H 
ATOM    143  H44 UNL A   1      43.781  29.765  25.692  1.00  0.00    +0.000 H 
ATOM    144  H45 UNL A   1      41.584  28.461  26.030  1.00  0.00    +0.000 H 
ATOM     39  C34 UNL A   1      41.188  27.656  28.760  1.00  0.00    +0.000 C 
ATOM     40  C35 UNL A   1      42.242  28.546  28.203  1.00  0.00    +0.000 C 
ATOM     41  N3  UNL A   1      43.248  29.070  28.821  1.00  0.00    +0.000 N 
ATOM     42  C36 UNL A   1      43.906  29.863  27.883  1.00  0.00    +0.000 C 
ATOM     43  C37 UNL A   1      44.673  30.920  28.271  1.00  0.00    +0.000 C 
ATOM     55  C44 UNL A   1      45.006  30.827  29.671  1.00  0.00    +0.000 C 
ATOM     56  C45 UNL A   1      45.709  29.920  30.442  1.00  0.00    +0.000 C 
ATOM     57  C46 UNL A   1      44.987  29.841  31.669  1.00  0.00    +0.000 C 
ATOM     58  C47 UNL A   1      43.934  30.753  31.608  1.00  0.00    +0.000 C 
ATOM     59  N4  UNL A   1      44.263  31.569  30.556  1.00  0.00    +0.000 N 
ATOM     60  C48 UNL A   1      42.700  30.865  32.342  1.00  0.00    +0.000 C 
ATOM     72  C55 UNL A   1      41.597  31.543  31.914  1.00  0.00    +0.000 C 
ATOM     73  N5  UNL A   1      40.350  31.264  32.449  1.00  0.00    +0.000 N 
ATOM     74  C56 UNL A   1      39.515  31.556  31.492  1.00  0.00    +0.000 C 
ATOM     75  C57 UNL A   1      38.329  30.729  31.180  1.00  0.00    +0.000 C 
ATOM     87  C64 UNL A   1      38.775  29.560  30.658  1.00  0.00    +0.000 C 
ATOM     88  C65 UNL A   1      38.082  28.308  30.465  1.00  0.00    +0.000 C 
ATOM     89  C66 UNL A   1      38.950  27.426  29.932  1.00  0.00    +0.000 C 
ATOM     90  C67 UNL A   1      40.199  28.109  29.564  1.00  0.00    +0.000 C 
ATOM     91  N6  UNL A   1      40.064  29.357  30.123  1.00  0.00    +0.000 N 
ATOM     92  C68 UNL A   1      40.028  32.425  30.446  1.00  0.00    +0.000 C 
ATOM     93  C69 UNL A   1      41.334  32.323  30.707  1.00  0.00    +0.000 C 
ATOM     94  C70 UNL A   1      43.367  29.501  26.599  1.00  0.00    +0.000 C 
ATOM     95  C71 UNL A   1      42.256  28.777  26.747  1.00  0.00    +0.000 C 
ENDROOT
BRANCH   39   38
ATOM     97  C73 UNL A   1      41.981  24.102  28.186  1.00  0.00    +0.000 C 
ATOM     35  C30 UNL A   1      41.038  23.743  27.230  1.00  0.00    +0.000 C 
ATOM     36  C31 UNL A   1      40.201  24.702  26.651  1.00  0.00    +0.000 C 
ATOM    133  H34 UNL A   1      39.538  24.440  25.905  1.00  0.00    +0.000 H 
ATOM     37  C32 UNL A   1      40.278  26.018  27.103  1.00  0.00    +0.000 C 
ATOM     38  C33 UNL A   1      41.137  26.324  28.169  1.00  0.00    +0.000 C 
ATOM    134  H35 UNL A   1      39.712  26.758  26.658  1.00  0.00    +0.000 H 
ATOM    145  H46 UNL A   1      42.456  25.546  29.618  1.00  0.00    +0.000 H 
ATOM    146  H47 UNL A   1      42.720  23.437  28.462  1.00  0.00    +0.000 H 
ATOM     96  C72 UNL A   1      41.923  25.342  28.759  1.00  0.00    +0.000 C 
BRANCH   35   33
ATOM     33  C29 UNL A   1      40.929  22.312  26.882  1.00  0.00    +0.000 C 
ATOM     34  O2  UNL A   1      40.185  21.580  27.494  1.00  0.00    +0.000 O 
BRANCH   33   32
ATOM    132  H33 UNL A   1      41.355  21.990  24.924  1.00  0.00    +0.000 H 
ATOM     32  N2  UNL A   1      41.705  21.840  25.831  1.00  0.00    +0.000 N 
BRANCH   32   31
ATOM    130  H31 UNL A   1      43.323  21.182  26.945  1.00  0.00    +0.000 H 
ATOM    131  H32 UNL A   1      42.842  20.138  25.602  1.00  0.00    +0.000 H 
ATOM     31  C28 UNL A   1      42.989  21.145  25.930  1.00  0.00    +0.000 C 
BRANCH   31   30
ATOM    129  H30 UNL A   1      43.599  21.938  24.088  1.00  0.00    +0.000 H 
ATOM     30  C27 UNL A   1      44.051  21.771  25.042  1.00  0.00    +0.000 C 
ATOM    128  H29 UNL A   1      44.885  21.102  24.992  1.00  0.00    +0.000 H 
BRANCH   30   29
ATOM     29  C26 UNL A   1      44.557  23.135  25.539  1.00  0.00    +0.000 C 
ATOM    126  H27 UNL A   1      44.288  23.223  26.572  1.00  0.00    +0.000 H 
ATOM    127  H28 UNL A   1      45.610  23.131  25.350  1.00  0.00    +0.000 H 
BRANCH   29   28
ATOM    124  H25 UNL A   1      44.674  24.586  23.990  1.00  0.00    +0.000 H 
ATOM     28  C25 UNL A   1      44.022  24.378  24.813  1.00  0.00    +0.000 C 
ATOM    125  H26 UNL A   1      43.020  24.138  24.521  1.00  0.00    +0.000 H 
BRANCH   28   27
ATOM    122  H23 UNL A   1      43.288  26.342  25.149  1.00  0.00    +0.000 H 
ATOM     27  C24 UNL A   1      43.918  25.646  25.663  1.00  0.00    +0.000 C 
ATOM    123  H24 UNL A   1      43.524  25.344  26.610  1.00  0.00    +0.000 H 
BRANCH   27   26
ATOM    121  H22 UNL A   1      45.040  27.300  26.345  1.00  0.00    +0.000 H 
ATOM     26  C23 UNL A   1      45.252  26.331  25.946  1.00  0.00    +0.000 C 
ATOM    120  H21 UNL A   1      45.806  26.393  25.033  1.00  0.00    +0.000 H 
BRANCH   26   25
ATOM     25  N1  UNL A   1      46.046  25.622  26.921  1.00  0.00    +0.000 N 
ATOM    119  H20 UNL A   1      46.902  25.262  26.591  1.00  0.00    +0.000 H 
BRANCH   25   23
ATOM     23  C22 UNL A   1      45.772  25.382  28.237  1.00  0.00    +0.000 C 
ATOM     24  O1  UNL A   1      45.403  24.245  28.543  1.00  0.00    +0.000 O 
BRANCH   23   22
ATOM    118  H19 UNL A   1      44.880  26.575  29.719  1.00  0.00    +0.000 H 
ATOM    117  H18 UNL A   1      46.146  27.397  28.777  1.00  0.00    +0.000 H 
ATOM     22  C21 UNL A   1      45.849  26.497  29.273  1.00  0.00    +0.000 C 
BRANCH   22   21
ATOM      2  C2  UNL A   1      45.594  26.115  33.868  1.00  0.00    +0.000 C 
ATOM     99  C74 UNL A   1      45.159  25.957  32.381  1.00  0.00    +0.000 C 
ATOM      4  C4  UNL A   1      47.053  25.547  33.897  1.00  0.00    +0.000 C 
ATOM      5  C5  UNL A   1      47.494  25.758  32.496  1.00  0.00    +0.000 C 
ATOM     98  N7  UNL A   1      46.430  25.989  31.669  1.00  0.00    +0.000 N 
ATOM      6  C6  UNL A   1      48.630  25.808  31.738  1.00  0.00    +0.000 C 
ATOM    106  H7  UNL A   1      47.060  24.509  34.155  1.00  0.00    +0.000 H 
ATOM    107  H8  UNL A   1      47.684  26.016  34.622  1.00  0.00    +0.000 H 
ATOM     13  C13 UNL A   1      48.210  26.090  30.388  1.00  0.00    +0.000 C 
ATOM    147  H48 UNL A   1      44.525  26.765  32.077  1.00  0.00    +0.000 H 
ATOM    148  H49 UNL A   1      44.592  25.069  32.198  1.00  0.00    +0.000 H 
ATOM     21  C20 UNL A   1      46.821  26.226  30.383  1.00  0.00    +0.000 C 
BRANCH    2    1
ATOM      1  C1  UNL A   1      44.658  25.352  34.805  1.00  0.00    +0.000 C 
ATOM    100  H1  UNL A   1      44.991  24.339  34.893  1.00  0.00    +0.000 H 
ATOM    101  H2  UNL A   1      43.666  25.369  34.409  1.00  0.00    +0.000 H 
ATOM    102  H3  UNL A   1      44.665  25.814  35.770  1.00  0.00    +0.000 H 
ENDBRANCH    2    1
BRANCH    2    3
ATOM    105  H6  UNL A   1      45.608  28.216  33.412  1.00  0.00    +0.000 H 
ATOM      3  C3  UNL A   1      45.605  27.599  34.286  1.00  0.00    +0.000 C 
ATOM    103  H4  UNL A   1      46.482  27.799  34.866  1.00  0.00    +0.000 H 
ATOM    104  H5  UNL A   1      44.735  27.811  34.871  1.00  0.00    +0.000 H 
ENDBRANCH    2    3
BRANCH    6    7
ATOM      7  C7  UNL A   1      49.982  25.576  32.195  1.00  0.00    +0.000 C 
ATOM      8  C8  UNL A   1      50.451  24.272  32.363  1.00  0.00    +0.000 C 
ATOM      9  C9  UNL A   1      51.818  24.045  32.514  1.00  0.00    +0.000 C 
ATOM     10  C10 UNL A   1      52.713  25.117  32.512  1.00  0.00    +0.000 C 
ATOM     11  C11 UNL A   1      52.242  26.425  32.408  1.00  0.00    +0.000 C 
ATOM     12  C12 UNL A   1      50.878  26.654  32.248  1.00  0.00    +0.000 C 
ATOM    108  H9  UNL A   1      49.788  23.480  32.378  1.00  0.00    +0.000 H 
ATOM    109  H10 UNL A   1      52.171  23.081  32.627  1.00  0.00    +0.000 H 
ATOM    111  H12 UNL A   1      52.901  27.218  32.449  1.00  0.00    +0.000 H 
ATOM    112  H13 UNL A   1      50.525  27.620  32.170  1.00  0.00    +0.000 H 
ATOM    110  H11 UNL A   1      53.727  24.942  32.586  1.00  0.00    +0.000 H 
ENDBRANCH    6    7
BRANCH   13   14
ATOM     14  C14 UNL A   1      49.088  26.180  29.227  1.00  0.00    +0.000 C 
ATOM     15  C15 UNL A   1      49.426  27.441  28.713  1.00  0.00    +0.000 C 
ATOM     16  C16 UNL A   1      50.125  27.553  27.508  1.00  0.00    +0.000 C 
ATOM    113  H14 UNL A   1      49.156  28.293  29.230  1.00  0.00    +0.000 H 
ATOM     17  C17 UNL A   1      50.500  26.403  26.819  1.00  0.00    +0.000 C 
ATOM     19  C18 UNL A   1      50.176  25.143  27.321  1.00  0.00    +0.000 C 
ATOM     20  C19 UNL A   1      49.456  25.035  28.513  1.00  0.00    +0.000 C 
ATOM    116  H17 UNL A   1      49.196  24.103  28.871  1.00  0.00    +0.000 H 
ATOM    114  H15 UNL A   1      50.361  28.484  27.131  1.00  0.00    +0.000 H 
ATOM    115  H16 UNL A   1      50.467  24.294  26.812  1.00  0.00    +0.000 H 
ATOM     18 Cl1  UNL A   1      51.341  26.536  25.323  1.00  0.00    +0.000 Cl
ENDBRANCH   13   14
ENDBRANCH   22   21
ENDBRANCH   23   22
ENDBRANCH   25   23
ENDBRANCH   26   25
ENDBRANCH   27   26
ENDBRANCH   28   27
ENDBRANCH   29   28
ENDBRANCH   30   29
ENDBRANCH   31   30
ENDBRANCH   32   31
ENDBRANCH   33   32
ENDBRANCH   35   33
ENDBRANCH   39   38
BRANCH   43   44
ATOM     44  C38 UNL A   1      44.821  32.213  27.498  1.00  0.00    +0.000 C 
ATOM     45  C39 UNL A   1      46.015  32.452  26.786  1.00  0.00    +0.000 C 
ATOM     46  F1  UNL A   1      46.897  31.463  26.577  1.00  0.00    +0.000 F 
ATOM     47  C40 UNL A   1      46.376  33.730  26.350  1.00  0.00    +0.000 C 
ATOM     48  F2  UNL A   1      47.577  33.929  25.792  1.00  0.00    +0.000 F 
ATOM     49  C41 UNL A   1      45.531  34.805  26.553  1.00  0.00    +0.000 C 
ATOM     50  F3  UNL A   1      45.900  36.041  26.192  1.00  0.00    +0.000 F 
ATOM     51  C42 UNL A   1      44.321  34.600  27.177  1.00  0.00    +0.000 C 
ATOM     52  F4  UNL A   1      43.493  35.632  27.396  1.00  0.00    +0.000 F 
ATOM     53  C43 UNL A   1      43.982  33.337  27.661  1.00  0.00    +0.000 C 
ATOM     54  F5  UNL A   1      42.857  33.293  28.382  1.00  0.00    +0.000 F 
ENDBRANCH   43   44
BRANCH   60   61
ATOM     65  F7  UNL A   1      42.475  30.073  37.215  1.00  0.00    +0.000 F 
ATOM     66  C52 UNL A   1      42.005  28.291  35.741  1.00  0.00    +0.000 C 
ATOM     67  F8  UNL A   1      41.733  27.486  36.778  1.00  0.00    +0.000 F 
ATOM     68  C53 UNL A   1      41.889  27.818  34.443  1.00  0.00    +0.000 C 
ATOM     69  F9  UNL A   1      41.484  26.560  34.225  1.00  0.00    +0.000 F 
ATOM     70  C54 UNL A   1      42.164  28.651  33.363  1.00  0.00    +0.000 C 
ATOM     71  F10 UNL A   1      42.024  28.166  32.120  1.00  0.00    +0.000 F 
ATOM     61  C49 UNL A   1      42.537  29.986  33.553  1.00  0.00    +0.000 C 
ATOM     62  C50 UNL A   1      42.616  30.451  34.878  1.00  0.00    +0.000 C 
ATOM     63  F6  UNL A   1      42.875  31.738  35.140  1.00  0.00    +0.000 F 
ATOM     64  C51 UNL A   1      42.377  29.606  35.961  1.00  0.00    +0.000 C 
ENDBRANCH   60   61
BRANCH   75   76
ATOM     76  C58 UNL A   1      37.002  31.343  30.991  1.00  0.00    +0.000 C 
ATOM     77  C59 UNL A   1      36.197  31.704  32.082  1.00  0.00    +0.000 C 
ATOM     78  F11 UNL A   1      36.495  31.260  33.312  1.00  0.00    +0.000 F 
ATOM     79  C60 UNL A   1      35.133  32.599  31.937  1.00  0.00    +0.000 C 
ATOM     80  F12 UNL A   1      34.411  32.966  33.005  1.00  0.00    +0.000 F 
ATOM     81  C61 UNL A   1      34.880  33.186  30.709  1.00  0.00    +0.000 C 
ATOM     82  F13 UNL A   1      33.919  34.112  30.579  1.00  0.00    +0.000 F 
ATOM     83  C62 UNL A   1      35.675  32.860  29.628  1.00  0.00    +0.000 C 
ATOM     84  F14 UNL A   1      35.557  33.547  28.491  1.00  0.00    +0.000 F 
ATOM     85  C63 UNL A   1      36.692  31.921  29.751  1.00  0.00    +0.000 C 
ATOM     86  F15 UNL A   1      37.460  31.686  28.675  1.00  0.00    +0.000 F 
ENDBRANCH   75   76
TORSDOF 20
ENDMDL
MODEL 7
REMARK VINA RESULT:      -8.6     35.769     40.214
ROOT
ATOM    135  H36 UNL A   1      23.530  27.875   1.215  1.00  0.00    +0.000 H 
ATOM    136  H37 UNL A   1      23.277  25.384   2.122  1.00  0.00    +0.000 H 
ATOM    137  H38 UNL A   1      19.616  26.936   1.401  1.00  0.00    +0.000 H 
ATOM    138  H39 UNL A   1      19.819  20.646  -3.856  1.00  0.00    +0.000 H 
ATOM    139  H40 UNL A   1      22.014  21.834  -4.373  1.00  0.00    +0.000 H 
ATOM    140  H41 UNL A   1      20.027  24.137  -1.548  1.00  0.00    +0.000 H 
ATOM    141  H42 UNL A   1      16.843  24.495  -1.276  1.00  0.00    +0.000 H 
ATOM    142  H43 UNL A   1      18.382  25.898   0.250  1.00  0.00    +0.000 H 
ATOM    143  H44 UNL A   1      21.240  29.028  -3.423  1.00  0.00    +0.000 H 
ATOM    144  H45 UNL A   1      21.261  26.887  -4.859  1.00  0.00    +0.000 H 
ATOM     39  C34 UNL A   1      22.079  24.569  -3.372  1.00  0.00    +0.000 C 
ATOM     40  C35 UNL A   1      21.796  25.939  -2.865  1.00  0.00    +0.000 C 
ATOM     41  N3  UNL A   1      21.945  26.389  -1.663  1.00  0.00    +0.000 N 
ATOM     42  C36 UNL A   1      21.493  27.707  -1.686  1.00  0.00    +0.000 C 
ATOM     43  C37 UNL A   1      21.038  28.313  -0.554  1.00  0.00    +0.000 C 
ATOM     55  C44 UNL A   1      21.462  27.593   0.621  1.00  0.00    +0.000 C 
ATOM     56  C45 UNL A   1      22.688  27.279   1.176  1.00  0.00    +0.000 C 
ATOM     57  C46 UNL A   1      22.538  25.954   1.682  1.00  0.00    +0.000 C 
ATOM     58  C47 UNL A   1      21.215  25.565   1.476  1.00  0.00    +0.000 C 
ATOM     59  N4  UNL A   1      20.561  26.740   1.208  1.00  0.00    +0.000 N 
ATOM     60  C48 UNL A   1      20.577  24.274   1.432  1.00  0.00    +0.000 C 
ATOM     72  C55 UNL A   1      19.381  24.016   0.829  1.00  0.00    +0.000 C 
ATOM     73  N5  UNL A   1      19.043  22.723   0.463  1.00  0.00    +0.000 N 
ATOM     74  C56 UNL A   1      18.248  22.872  -0.558  1.00  0.00    +0.000 C 
ATOM     75  C57 UNL A   1      18.303  22.002  -1.753  1.00  0.00    +0.000 C 
ATOM     87  C64 UNL A   1      19.459  22.278  -2.404  1.00  0.00    +0.000 C 
ATOM     88  C65 UNL A   1      20.141  21.533  -3.435  1.00  0.00    +0.000 C 
ATOM     89  C66 UNL A   1      21.271  22.196  -3.755  1.00  0.00    +0.000 C 
ATOM     90  C67 UNL A   1      21.286  23.508  -3.094  1.00  0.00    +0.000 C 
ATOM     91  N6  UNL A   1      20.227  23.447  -2.221  1.00  0.00    +0.000 N 
ATOM     92  C68 UNL A   1      17.644  24.186  -0.704  1.00  0.00    +0.000 C 
ATOM     93  C69 UNL A   1      18.434  24.876   0.123  1.00  0.00    +0.000 C 
ATOM     94  C70 UNL A   1      21.364  28.065  -3.074  1.00  0.00    +0.000 C 
ATOM     95  C71 UNL A   1      21.427  26.977  -3.844  1.00  0.00    +0.000 C 
ENDROOT
BRANCH   39   38
ATOM     97  C73 UNL A   1      23.674  24.835  -6.684  1.00  0.00    +0.000 C 
ATOM     35  C30 UNL A   1      25.000  24.536  -6.396  1.00  0.00    +0.000 C 
ATOM     36  C31 UNL A   1      25.377  24.106  -5.119  1.00  0.00    +0.000 C 
ATOM    133  H34 UNL A   1      26.353  23.835  -4.922  1.00  0.00    +0.000 H 
ATOM     37  C32 UNL A   1      24.410  24.052  -4.118  1.00  0.00    +0.000 C 
ATOM     38  C33 UNL A   1      23.110  24.498  -4.400  1.00  0.00    +0.000 C 
ATOM    134  H35 UNL A   1      24.646  23.689  -3.181  1.00  0.00    +0.000 H 
ATOM    145  H46 UNL A   1      21.855  25.406  -5.831  1.00  0.00    +0.000 H 
ATOM    146  H47 UNL A   1      23.372  24.959  -7.663  1.00  0.00    +0.000 H 
ATOM     96  C72 UNL A   1      22.773  24.966  -5.665  1.00  0.00    +0.000 C 
BRANCH   35   33
ATOM     33  C29 UNL A   1      25.994  24.727  -7.471  1.00  0.00    +0.000 C 
ATOM     34  O2  UNL A   1      25.672  25.201  -8.536  1.00  0.00    +0.000 O 
BRANCH   33   32
ATOM    132  H33 UNL A   1      27.500  23.382  -7.263  1.00  0.00    +0.000 H 
ATOM     32  N2  UNL A   1      27.305  24.345  -7.215  1.00  0.00    +0.000 N 
BRANCH   32   31
ATOM    130  H31 UNL A   1      28.138  26.236  -7.064  1.00  0.00    +0.000 H 
ATOM    131  H32 UNL A   1      28.673  25.065  -5.853  1.00  0.00    +0.000 H 
ATOM     31  C28 UNL A   1      28.428  25.223  -6.882  1.00  0.00    +0.000 C 
BRANCH   31   30
ATOM    129  H30 UNL A   1      30.110  25.851  -7.963  1.00  0.00    +0.000 H 
ATOM     30  C27 UNL A   1      29.664  24.913  -7.708  1.00  0.00    +0.000 C 
ATOM    128  H29 UNL A   1      29.363  24.352  -8.567  1.00  0.00    +0.000 H 
BRANCH   30   29
ATOM     29  C26 UNL A   1      30.732  24.104  -6.953  1.00  0.00    +0.000 C 
ATOM    126  H27 UNL A   1      31.203  24.763  -6.252  1.00  0.00    +0.000 H 
ATOM    127  H28 UNL A   1      30.204  23.285  -6.512  1.00  0.00    +0.000 H 
BRANCH   29   28
ATOM    124  H25 UNL A   1      31.755  23.840  -8.798  1.00  0.00    +0.000 H 
ATOM     28  C25 UNL A   1      31.840  23.460  -7.801  1.00  0.00    +0.000 C 
ATOM    125  H26 UNL A   1      32.762  23.712  -7.319  1.00  0.00    +0.000 H 
BRANCH   28   27
ATOM    122  H23 UNL A   1      32.443  21.625  -8.682  1.00  0.00    +0.000 H 
ATOM     27  C24 UNL A   1      31.810  21.933  -7.876  1.00  0.00    +0.000 C 
ATOM    123  H24 UNL A   1      32.142  21.576  -6.923  1.00  0.00    +0.000 H 
BRANCH   27   26
ATOM    121  H22 UNL A   1      29.808  22.099  -8.530  1.00  0.00    +0.000 H 
ATOM     26  C23 UNL A   1      30.424  21.335  -8.105  1.00  0.00    +0.000 C 
ATOM    120  H21 UNL A   1      30.039  20.994  -7.167  1.00  0.00    +0.000 H 
BRANCH   26   25
ATOM     25  N1  UNL A   1      30.442  20.226  -9.028  1.00  0.00    +0.000 N 
ATOM    119  H20 UNL A   1      31.068  19.498  -8.806  1.00  0.00    +0.000 H 
BRANCH   25   23
ATOM     23  C22 UNL A   1      29.710  20.048 -10.167  1.00  0.00    +0.000 C 
ATOM     24  O1  UNL A   1      28.621  19.477 -10.060  1.00  0.00    +0.000 O 
BRANCH   23   22
ATOM    118  H19 UNL A   1      29.409  20.619 -12.167  1.00  0.00    +0.000 H 
ATOM    117  H18 UNL A   1      30.910  19.708 -11.881  1.00  0.00    +0.000 H 
ATOM     22  C21 UNL A   1      30.252  20.474 -11.526  1.00  0.00    +0.000 C 
BRANCH   22   21
ATOM      2  C2  UNL A   1      29.133  24.953 -11.637  1.00  0.00    +0.000 C 
ATOM     99  C74 UNL A   1      29.016  23.446 -11.263  1.00  0.00    +0.000 C 
ATOM      4  C4  UNL A   1      30.604  25.324 -11.250  1.00  0.00    +0.000 C 
ATOM      5  C5  UNL A   1      31.291  24.014 -11.351  1.00  0.00    +0.000 C 
ATOM     98  N7  UNL A   1      30.394  22.982 -11.363  1.00  0.00    +0.000 N 
ATOM      6  C6  UNL A   1      32.544  23.477 -11.449  1.00  0.00    +0.000 C 
ATOM    106  H7  UNL A   1      30.657  25.715 -10.255  1.00  0.00    +0.000 H 
ATOM    107  H8  UNL A   1      31.033  26.085 -11.867  1.00  0.00    +0.000 H 
ATOM     13  C13 UNL A   1      32.375  22.049 -11.526  1.00  0.00    +0.000 C 
ATOM    147  H48 UNL A   1      28.383  22.926 -11.951  1.00  0.00    +0.000 H 
ATOM    148  H49 UNL A   1      28.581  23.281 -10.300  1.00  0.00    +0.000 H 
ATOM     21  C20 UNL A   1      31.007  21.769 -11.497  1.00  0.00    +0.000 C 
BRANCH    2    1
ATOM      1  C1  UNL A   1      28.106  25.794 -10.879  1.00  0.00    +0.000 C 
ATOM    100  H1  UNL A   1      28.329  26.832 -11.010  1.00  0.00    +0.000 H 
ATOM    101  H2  UNL A   1      28.142  25.550  -9.839  1.00  0.00    +0.000 H 
ATOM    102  H3  UNL A   1      27.127  25.589 -11.260  1.00  0.00    +0.000 H 
ENDBRANCH    2    1
BRANCH    2    3
ATOM    105  H6  UNL A   1      28.418  24.317 -13.562  1.00  0.00    +0.000 H 
ATOM      3  C3  UNL A   1      28.924  25.165 -13.149  1.00  0.00    +0.000 C 
ATOM    103  H4  UNL A   1      29.874  25.281 -13.628  1.00  0.00    +0.000 H 
ATOM    104  H5  UNL A   1      28.335  26.044 -13.307  1.00  0.00    +0.000 H 
ENDBRANCH    2    3
BRANCH    6    7
ATOM      7  C7  UNL A   1      33.796  24.202 -11.429  1.00  0.00    +0.000 C 
ATOM      8  C8  UNL A   1      34.646  24.103 -10.325  1.00  0.00    +0.000 C 
ATOM      9  C9  UNL A   1      35.961  24.553 -10.427  1.00  0.00    +0.000 C 
ATOM     10  C10 UNL A   1      36.423  25.114 -11.620  1.00  0.00    +0.000 C 
ATOM     11  C11 UNL A   1      35.558  25.273 -12.701  1.00  0.00    +0.000 C 
ATOM     12  C12 UNL A   1      34.247  24.816 -12.606  1.00  0.00    +0.000 C 
ATOM    108  H9  UNL A   1      34.301  23.700  -9.440  1.00  0.00    +0.000 H 
ATOM    109  H10 UNL A   1      36.597  24.471  -9.617  1.00  0.00    +0.000 H 
ATOM    111  H12 UNL A   1      35.889  25.726 -13.568  1.00  0.00    +0.000 H 
ATOM    112  H13 UNL A   1      33.604  24.930 -13.405  1.00  0.00    +0.000 H 
ATOM    110  H11 UNL A   1      37.407  25.412 -11.703  1.00  0.00    +0.000 H 
ENDBRANCH    6    7
BRANCH   13   14
ATOM     14  C14 UNL A   1      33.452  21.067 -11.586  1.00  0.00    +0.000 C 
ATOM     15  C15 UNL A   1      34.094  20.821 -12.810  1.00  0.00    +0.000 C 
ATOM     16  C16 UNL A   1      35.010  19.774 -12.933  1.00  0.00    +0.000 C 
ATOM    113  H14 UNL A   1      33.888  21.421 -13.624  1.00  0.00    +0.000 H 
ATOM     17  C17 UNL A   1      35.298  18.975 -11.829  1.00  0.00    +0.000 C 
ATOM     19  C18 UNL A   1      34.672  19.212 -10.606  1.00  0.00    +0.000 C 
ATOM     20  C19 UNL A   1      33.738  20.245 -10.492  1.00  0.00    +0.000 C 
ATOM    116  H17 UNL A   1      33.257  20.403  -9.593  1.00  0.00    +0.000 H 
ATOM    114  H15 UNL A   1      35.471  19.592 -13.839  1.00  0.00    +0.000 H 
ATOM    115  H16 UNL A   1      34.898  18.625  -9.788  1.00  0.00    +0.000 H 
ATOM     18 Cl1  UNL A   1      36.408  17.669 -11.982  1.00  0.00    +0.000 Cl
ENDBRANCH   13   14
ENDBRANCH   22   21
ENDBRANCH   23   22
ENDBRANCH   25   23
ENDBRANCH   26   25
ENDBRANCH   27   26
ENDBRANCH   28   27
ENDBRANCH   29   28
ENDBRANCH   30   29
ENDBRANCH   31   30
ENDBRANCH   32   31
ENDBRANCH   33   32
ENDBRANCH   35   33
ENDBRANCH   39   38
BRANCH   43   44
ATOM     44  C38 UNL A   1      19.921  29.332  -0.508  1.00  0.00    +0.000 C 
ATOM     45  C39 UNL A   1      20.023  30.420   0.385  1.00  0.00    +0.000 C 
ATOM     46  F1  UNL A   1      21.185  30.699   0.994  1.00  0.00    +0.000 F 
ATOM     47  C40 UNL A   1      18.914  31.192   0.745  1.00  0.00    +0.000 C 
ATOM     48  F2  UNL A   1      19.036  32.131   1.693  1.00  0.00    +0.000 F 
ATOM     49  C41 UNL A   1      17.677  30.947   0.180  1.00  0.00    +0.000 C 
ATOM     50  F3  UNL A   1      16.600  31.644   0.568  1.00  0.00    +0.000 F 
ATOM     51  C42 UNL A   1      17.550  29.943  -0.753  1.00  0.00    +0.000 C 
ATOM     52  F4  UNL A   1      16.355  29.680  -1.302  1.00  0.00    +0.000 F 
ATOM     53  C43 UNL A   1      18.641  29.137  -1.073  1.00  0.00    +0.000 C 
ATOM     54  F5  UNL A   1      18.362  28.101  -1.872  1.00  0.00    +0.000 F 
ENDBRANCH   43   44
BRANCH   60   61
ATOM     65  F7  UNL A   1      22.029  20.931   4.768  1.00  0.00    +0.000 F 
ATOM     66  C52 UNL A   1      22.792  20.736   2.544  1.00  0.00    +0.000 C 
ATOM     67  F8  UNL A   1      23.446  19.607   2.851  1.00  0.00    +0.000 F 
ATOM     68  C53 UNL A   1      22.816  21.223   1.246  1.00  0.00    +0.000 C 
ATOM     69  F9  UNL A   1      23.476  20.551   0.292  1.00  0.00    +0.000 F 
ATOM     70  C54 UNL A   1      22.134  22.392   0.919  1.00  0.00    +0.000 C 
ATOM     71  F10 UNL A   1      22.162  22.824  -0.350  1.00  0.00    +0.000 F 
ATOM     61  C49 UNL A   1      21.390  23.088   1.878  1.00  0.00    +0.000 C 
ATOM     62  C50 UNL A   1      21.354  22.556   3.179  1.00  0.00    +0.000 C 
ATOM     63  F6  UNL A   1      20.590  23.112   4.128  1.00  0.00    +0.000 F 
ATOM     64  C51 UNL A   1      22.068  21.406   3.515  1.00  0.00    +0.000 C 
ENDBRANCH   60   61
BRANCH   75   76
ATOM     76  C58 UNL A   1      17.076  21.414  -2.321  1.00  0.00    +0.000 C 
ATOM     77  C59 UNL A   1      16.336  20.443  -1.628  1.00  0.00    +0.000 C 
ATOM     78  F11 UNL A   1      16.866  19.836  -0.557  1.00  0.00    +0.000 F 
ATOM     79  C60 UNL A   1      15.012  20.155  -1.971  1.00  0.00    +0.000 C 
ATOM     80  F12 UNL A   1      14.312  19.260  -1.260  1.00  0.00    +0.000 F 
ATOM     81  C61 UNL A   1      14.386  20.860  -2.984  1.00  0.00    +0.000 C 
ATOM     82  F13 UNL A   1      13.091  20.653  -3.262  1.00  0.00    +0.000 F 
ATOM     83  C62 UNL A   1      15.091  21.835  -3.664  1.00  0.00    +0.000 C 
ATOM     84  F14 UNL A   1      14.451  22.639  -4.514  1.00  0.00    +0.000 F 
ATOM     85  C63 UNL A   1      16.427  22.080  -3.372  1.00  0.00    +0.000 C 
ATOM     86  F15 UNL A   1      17.040  23.073  -4.035  1.00  0.00    +0.000 F 
ENDBRANCH   75   76
TORSDOF 20
ENDMDL
MODEL 8
REMARK VINA RESULT:      -8.6     40.640     46.346
ROOT
ATOM    135  H36 UNL A   1       5.655  16.635  41.480  1.00  0.00    +0.000 H 
ATOM    136  H37 UNL A   1       6.672  15.862  39.144  1.00  0.00    +0.000 H 
ATOM    137  H38 UNL A   1       6.923  12.823  41.796  1.00  0.00    +0.000 H 
ATOM    138  H39 UNL A   1       2.003   9.627  36.067  1.00  0.00    +0.000 H 
ATOM    139  H40 UNL A   1       0.875  11.863  36.541  1.00  0.00    +0.000 H 
ATOM    140  H41 UNL A   1       4.060  11.530  39.181  1.00  0.00    +0.000 H 
ATOM    141  H42 UNL A   1       5.173   8.815  40.496  1.00  0.00    +0.000 H 
ATOM    142  H43 UNL A   1       6.181  11.065  41.261  1.00  0.00    +0.000 H 
ATOM    143  H44 UNL A   1       1.777  13.675  43.552  1.00  0.00    +0.000 H 
ATOM    144  H45 UNL A   1       0.456  12.637  41.597  1.00  0.00    +0.000 H 
ATOM     39  C34 UNL A   1       1.736  13.050  39.058  1.00  0.00    +0.000 C 
ATOM     40  C35 UNL A   1       2.258  13.358  40.417  1.00  0.00    +0.000 C 
ATOM     41  N3  UNL A   1       3.360  13.956  40.728  1.00  0.00    +0.000 N 
ATOM     42  C36 UNL A   1       3.421  13.953  42.120  1.00  0.00    +0.000 C 
ATOM     43  C37 UNL A   1       4.614  14.031  42.772  1.00  0.00    +0.000 C 
ATOM     55  C44 UNL A   1       5.651  14.504  41.889  1.00  0.00    +0.000 C 
ATOM     56  C45 UNL A   1       5.863  15.670  41.179  1.00  0.00    +0.000 C 
ATOM     57  C46 UNL A   1       6.431  15.251  39.940  1.00  0.00    +0.000 C 
ATOM     58  C47 UNL A   1       6.604  13.869  39.993  1.00  0.00    +0.000 C 
ATOM     59  N4  UNL A   1       6.487  13.571  41.327  1.00  0.00    +0.000 N 
ATOM     60  C48 UNL A   1       6.774  12.869  38.970  1.00  0.00    +0.000 C 
ATOM     72  C55 UNL A   1       6.525  11.538  39.131  1.00  0.00    +0.000 C 
ATOM     73  N5  UNL A   1       6.305  10.725  38.031  1.00  0.00    +0.000 N 
ATOM     74  C56 UNL A   1       5.534   9.776  38.478  1.00  0.00    +0.000 C 
ATOM     75  C57 UNL A   1       4.395   9.233  37.705  1.00  0.00    +0.000 C 
ATOM     87  C64 UNL A   1       3.447  10.200  37.644  1.00  0.00    +0.000 C 
ATOM     88  C65 UNL A   1       2.293  10.312  36.784  1.00  0.00    +0.000 C 
ATOM     89  C66 UNL A   1       1.660  11.464  37.080  1.00  0.00    +0.000 C 
ATOM     90  C67 UNL A   1       2.250  12.068  38.282  1.00  0.00    +0.000 C 
ATOM     91  N6  UNL A   1       3.380  11.317  38.503  1.00  0.00    +0.000 N 
ATOM     92  C68 UNL A   1       5.516   9.600  39.921  1.00  0.00    +0.000 C 
ATOM     93  C69 UNL A   1       6.077  10.758  40.283  1.00  0.00    +0.000 C 
ATOM     94  C70 UNL A   1       2.110  13.578  42.579  1.00  0.00    +0.000 C 
ATOM     95  C71 UNL A   1       1.385  13.088  41.573  1.00  0.00    +0.000 C 
ENDROOT
BRANCH   39   38
ATOM     97  C73 UNL A   1      -1.903  13.557  38.764  1.00  0.00    +0.000 C 
ATOM     35  C30 UNL A   1      -1.979  14.857  38.280  1.00  0.00    +0.000 C 
ATOM     36  C31 UNL A   1      -0.824  15.556  37.912  1.00  0.00    +0.000 C 
ATOM    133  H34 UNL A   1      -0.888  16.502  37.506  1.00  0.00    +0.000 H 
ATOM     37  C32 UNL A   1       0.415  14.948  38.106  1.00  0.00    +0.000 C 
ATOM     38  C33 UNL A   1       0.470  13.693  38.729  1.00  0.00    +0.000 C 
ATOM    134  H35 UNL A   1       1.281  15.415  37.795  1.00  0.00    +0.000 H 
ATOM    145  H46 UNL A   1      -0.638  12.181  39.696  1.00  0.00    +0.000 H 
ATOM    146  H47 UNL A   1      -2.757  12.983  38.846  1.00  0.00    +0.000 H 
ATOM     96  C72 UNL A   1      -0.691  13.041  39.129  1.00  0.00    +0.000 C 
BRANCH   35   33
ATOM     33  C29 UNL A   1      -3.315  15.484  38.210  1.00  0.00    +0.000 C 
ATOM     34  O2  UNL A   1      -3.529  16.548  38.745  1.00  0.00    +0.000 O 
BRANCH   33   32
ATOM    132  H33 UNL A   1      -5.048  14.442  38.044  1.00  0.00    +0.000 H 
ATOM     32  N2  UNL A   1      -4.309  14.812  37.511  1.00  0.00    +0.000 N 
BRANCH   32   31
ATOM    130  H31 UNL A   1      -5.394  14.676  35.751  1.00  0.00    +0.000 H 
ATOM    131  H32 UNL A   1      -3.762  15.338  35.596  1.00  0.00    +0.000 H 
ATOM     31  C28 UNL A   1      -4.375  14.597  36.065  1.00  0.00    +0.000 C 
BRANCH   31   30
ATOM    129  H30 UNL A   1      -4.556  12.808  34.987  1.00  0.00    +0.000 H 
ATOM     30  C27 UNL A   1      -3.843  13.233  35.661  1.00  0.00    +0.000 C 
ATOM    128  H29 UNL A   1      -3.714  12.647  36.547  1.00  0.00    +0.000 H 
BRANCH   30   29
ATOM     29  C26 UNL A   1      -2.500  13.281  34.915  1.00  0.00    +0.000 C 
ATOM    126  H27 UNL A   1      -2.702  13.136  33.874  1.00  0.00    +0.000 H 
ATOM    127  H28 UNL A   1      -2.077  14.233  35.159  1.00  0.00    +0.000 H 
BRANCH   29   28
ATOM    124  H25 UNL A   1      -0.939  11.916  34.445  1.00  0.00    +0.000 H 
ATOM     28  C25 UNL A   1      -1.439  12.250  35.330  1.00  0.00    +0.000 C 
ATOM    125  H26 UNL A   1      -0.799  12.753  36.025  1.00  0.00    +0.000 H 
BRANCH   28   27
ATOM    122  H23 UNL A   1      -1.164  10.590  36.624  1.00  0.00    +0.000 H 
ATOM     27  C24 UNL A   1      -1.970  11.018  36.065  1.00  0.00    +0.000 C 
ATOM    123  H24 UNL A   1      -2.775  11.356  36.683  1.00  0.00    +0.000 H 
BRANCH   27   26
ATOM    121  H22 UNL A   1      -3.045  10.426  34.346  1.00  0.00    +0.000 H 
ATOM     26  C23 UNL A   1      -2.546   9.936  35.155  1.00  0.00    +0.000 C 
ATOM    120  H21 UNL A   1      -3.220   9.332  35.726  1.00  0.00    +0.000 H 
BRANCH   26   25
ATOM     25  N1  UNL A   1      -1.528   9.084  34.589  1.00  0.00    +0.000 N 
ATOM    119  H20 UNL A   1      -1.102   9.420  33.767  1.00  0.00    +0.000 H 
BRANCH   25   23
ATOM     23  C22 UNL A   1      -1.075   7.876  35.038  1.00  0.00    +0.000 C 
ATOM     24  O1  UNL A   1      -1.822   6.904  34.904  1.00  0.00    +0.000 O 
BRANCH   23   22
ATOM    118  H19 UNL A   1       0.466   8.694  36.208  1.00  0.00    +0.000 H 
ATOM    117  H18 UNL A   1       1.010   7.493  35.014  1.00  0.00    +0.000 H 
ATOM     22  C21 UNL A   1       0.270   7.752  35.742  1.00  0.00    +0.000 C 
BRANCH   22   21
ATOM      2  C2  UNL A   1       1.359   3.272  36.007  1.00  0.00    +0.000 C 
ATOM     99  C74 UNL A   1       1.464   4.757  35.553  1.00  0.00    +0.000 C 
ATOM      4  C4  UNL A   1       1.311   3.358  37.570  1.00  0.00    +0.000 C 
ATOM      5  C5  UNL A   1       0.752   4.714  37.788  1.00  0.00    +0.000 C 
ATOM     98  N7  UNL A   1       0.840   5.476  36.656  1.00  0.00    +0.000 N 
ATOM      6  C6  UNL A   1       0.157   5.474  38.756  1.00  0.00    +0.000 C 
ATOM    106  H7  UNL A   1       2.289   3.268  37.994  1.00  0.00    +0.000 H 
ATOM    107  H8  UNL A   1       0.740   2.578  38.028  1.00  0.00    +0.000 H 
ATOM     13  C13 UNL A   1      -0.125   6.755  38.158  1.00  0.00    +0.000 C 
ATOM    147  H48 UNL A   1       0.934   4.919  34.637  1.00  0.00    +0.000 H 
ATOM    148  H49 UNL A   1       2.468   5.069  35.356  1.00  0.00    +0.000 H 
ATOM     21  C20 UNL A   1       0.292   6.716  36.826  1.00  0.00    +0.000 C 
BRANCH    2    1
ATOM      1  C1  UNL A   1       2.549   2.453  35.510  1.00  0.00    +0.000 C 
ATOM    100  H1  UNL A   1       2.920   1.842  36.306  1.00  0.00    +0.000 H 
ATOM    101  H2  UNL A   1       3.321   3.113  35.176  1.00  0.00    +0.000 H 
ATOM    102  H3  UNL A   1       2.238   1.829  34.698  1.00  0.00    +0.000 H 
ENDBRANCH    2    1
BRANCH    2    3
ATOM    105  H6  UNL A   1       0.149   2.454  34.430  1.00  0.00    +0.000 H 
ATOM      3  C3  UNL A   1       0.062   2.624  35.482  1.00  0.00    +0.000 C 
ATOM    103  H4  UNL A   1      -0.764   3.277  35.671  1.00  0.00    +0.000 H 
ATOM    104  H5  UNL A   1      -0.098   1.692  35.983  1.00  0.00    +0.000 H 
ENDBRANCH    2    3
BRANCH    6    7
ATOM      7  C7  UNL A   1      -0.095   5.082  40.125  1.00  0.00    +0.000 C 
ATOM      8  C8  UNL A   1       0.838   5.377  41.121  1.00  0.00    +0.000 C 
ATOM      9  C9  UNL A   1       0.472   5.268  42.462  1.00  0.00    +0.000 C 
ATOM     10  C10 UNL A   1      -0.816   4.853  42.808  1.00  0.00    +0.000 C 
ATOM     11  C11 UNL A   1      -1.729   4.497  41.816  1.00  0.00    +0.000 C 
ATOM     12  C12 UNL A   1      -1.369   4.613  40.477  1.00  0.00    +0.000 C 
ATOM    108  H9  UNL A   1       1.794   5.671  40.866  1.00  0.00    +0.000 H 
ATOM    109  H10 UNL A   1       1.155   5.496  43.202  1.00  0.00    +0.000 H 
ATOM    111  H12 UNL A   1      -2.666   4.149  42.074  1.00  0.00    +0.000 H 
ATOM    112  H13 UNL A   1      -2.041   4.352  39.739  1.00  0.00    +0.000 H 
ATOM    110  H11 UNL A   1      -1.095   4.810  43.800  1.00  0.00    +0.000 H 
ENDBRANCH    6    7
BRANCH   13   14
ATOM     14  C14 UNL A   1      -0.711   7.902  38.843  1.00  0.00    +0.000 C 
ATOM     15  C15 UNL A   1       0.106   8.722  39.636  1.00  0.00    +0.000 C 
ATOM     16  C16 UNL A   1      -0.454   9.723  40.434  1.00  0.00    +0.000 C 
ATOM    113  H14 UNL A   1       1.129   8.585  39.629  1.00  0.00    +0.000 H 
ATOM     17  C17 UNL A   1      -1.834   9.916  40.431  1.00  0.00    +0.000 C 
ATOM     19  C18 UNL A   1      -2.656   9.112  39.643  1.00  0.00    +0.000 C 
ATOM     20  C19 UNL A   1      -2.095   8.096  38.865  1.00  0.00    +0.000 C 
ATOM    116  H17 UNL A   1      -2.707   7.485  38.302  1.00  0.00    +0.000 H 
ATOM    114  H15 UNL A   1       0.151  10.317  41.023  1.00  0.00    +0.000 H 
ATOM    115  H16 UNL A   1      -3.676   9.267  39.636  1.00  0.00    +0.000 H 
ATOM     18 Cl1  UNL A   1      -2.531  11.132  41.429  1.00  0.00    +0.000 Cl
ENDBRANCH   13   14
ENDBRANCH   22   21
ENDBRANCH   23   22
ENDBRANCH   25   23
ENDBRANCH   26   25
ENDBRANCH   27   26
ENDBRANCH   28   27
ENDBRANCH   29   28
ENDBRANCH   30   29
ENDBRANCH   31   30
ENDBRANCH   32   31
ENDBRANCH   33   32
ENDBRANCH   35   33
ENDBRANCH   39   38
BRANCH   43   44
ATOM     44  C38 UNL A   1       4.930  13.347  44.084  1.00  0.00    +0.000 C 
ATOM     45  C39 UNL A   1       4.737  11.953  44.192  1.00  0.00    +0.000 C 
ATOM     46  F1  UNL A   1       4.529  11.204  43.100  1.00  0.00    +0.000 F 
ATOM     47  C40 UNL A   1       4.663  11.308  45.431  1.00  0.00    +0.000 C 
ATOM     48  F2  UNL A   1       4.350  10.007  45.486  1.00  0.00    +0.000 F 
ATOM     49  C41 UNL A   1       4.840  12.018  46.603  1.00  0.00    +0.000 C 
ATOM     50  F3  UNL A   1       4.708  11.416  47.792  1.00  0.00    +0.000 F 
ATOM     51  C42 UNL A   1       5.106  13.368  46.538  1.00  0.00    +0.000 C 
ATOM     52  F4  UNL A   1       5.267  14.078  47.664  1.00  0.00    +0.000 F 
ATOM     53  C43 UNL A   1       5.127  14.023  45.308  1.00  0.00    +0.000 C 
ATOM     54  F5  UNL A   1       5.242  15.354  45.380  1.00  0.00    +0.000 F 
ENDBRANCH   43   44
BRANCH   60   61
ATOM     65  F7  UNL A   1       5.306  14.124  34.421  1.00  0.00    +0.000 F 
ATOM     66  C52 UNL A   1       7.556  14.478  35.038  1.00  0.00    +0.000 C 
ATOM     67  F8  UNL A   1       7.812  15.029  33.844  1.00  0.00    +0.000 F 
ATOM     68  C53 UNL A   1       8.558  14.386  35.992  1.00  0.00    +0.000 C 
ATOM     69  F9  UNL A   1       9.779  14.869  35.726  1.00  0.00    +0.000 F 
ATOM     70  C54 UNL A   1       8.296  13.820  37.236  1.00  0.00    +0.000 C 
ATOM     71  F10 UNL A   1       9.284  13.764  38.142  1.00  0.00    +0.000 F 
ATOM     61  C49 UNL A   1       7.019  13.355  37.567  1.00  0.00    +0.000 C 
ATOM     62  C50 UNL A   1       6.011  13.490  36.595  1.00  0.00    +0.000 C 
ATOM     63  F6  UNL A   1       4.744  13.156  36.868  1.00  0.00    +0.000 F 
ATOM     64  C51 UNL A   1       6.283  14.023  35.335  1.00  0.00    +0.000 C 
ENDBRANCH   60   61
BRANCH   75   76
ATOM     76  C58 UNL A   1       4.199   7.779  37.561  1.00  0.00    +0.000 C 
ATOM     77  C59 UNL A   1       4.841   7.047  36.550  1.00  0.00    +0.000 C 
ATOM     78  F11 UNL A   1       5.435   7.687  35.533  1.00  0.00    +0.000 F 
ATOM     79  C60 UNL A   1       4.960   5.656  36.622  1.00  0.00    +0.000 C 
ATOM     80  F12 UNL A   1       5.622   4.986  35.669  1.00  0.00    +0.000 F 
ATOM     81  C61 UNL A   1       4.480   4.972  37.726  1.00  0.00    +0.000 C 
ATOM     82  F13 UNL A   1       4.667   3.651  37.847  1.00  0.00    +0.000 F 
ATOM     83  C62 UNL A   1       3.864   5.678  38.742  1.00  0.00    +0.000 C 
ATOM     84  F14 UNL A   1       3.559   5.060  39.884  1.00  0.00    +0.000 F 
ATOM     85  C63 UNL A   1       3.684   7.053  38.645  1.00  0.00    +0.000 C 
ATOM     86  F15 UNL A   1       3.123   7.685  39.688  1.00  0.00    +0.000 F 
ENDBRANCH   75   76
TORSDOF 20
ENDMDL
MODEL 9
REMARK VINA RESULT:      -8.6     39.155     45.555
ROOT
ATOM    135  H36 UNL A   1      12.490  -3.107  25.584  1.00  0.00    +0.000 H 
ATOM    136  H37 UNL A   1       9.938  -2.943  26.323  1.00  0.00    +0.000 H 
ATOM    137  H38 UNL A   1      11.971   0.230  27.782  1.00  0.00    +0.000 H 
ATOM    138  H39 UNL A   1       6.526   3.870  22.848  1.00  0.00    +0.000 H 
ATOM    139  H40 UNL A   1       7.527   2.101  21.310  1.00  0.00    +0.000 H 
ATOM    140  H41 UNL A   1       9.600   1.900  24.900  1.00  0.00    +0.000 H 
ATOM    141  H42 UNL A   1      10.264   4.360  26.862  1.00  0.00    +0.000 H 
ATOM    142  H43 UNL A   1      11.253   2.039  27.409  1.00  0.00    +0.000 H 
ATOM    143  H44 UNL A   1      14.548   1.028  22.985  1.00  0.00    +0.000 H 
ATOM    144  H45 UNL A   1      12.649   2.123  21.629  1.00  0.00    +0.000 H 
ATOM     39  C34 UNL A   1      10.064   1.059  22.292  1.00  0.00    +0.000 C 
ATOM     40  C35 UNL A   1      11.369   0.799  22.958  1.00  0.00    +0.000 C 
ATOM     41  N3  UNL A   1      11.621  -0.029  23.918  1.00  0.00    +0.000 N 
ATOM     42  C36 UNL A   1      12.970   0.137  24.226  1.00  0.00    +0.000 C 
ATOM     43  C37 UNL A   1      13.452  -0.176  25.461  1.00  0.00    +0.000 C 
ATOM     55  C44 UNL A   1      12.527  -1.019  26.175  1.00  0.00    +0.000 C 
ATOM     56  C45 UNL A   1      12.003  -2.281  25.964  1.00  0.00    +0.000 C 
ATOM     57  C46 UNL A   1      10.644  -2.192  26.386  1.00  0.00    +0.000 C 
ATOM     58  C47 UNL A   1      10.436  -0.913  26.898  1.00  0.00    +0.000 C 
ATOM     59  N4  UNL A   1      11.702  -0.426  27.099  1.00  0.00    +0.000 N 
ATOM     60  C48 UNL A   1       9.243  -0.135  27.121  1.00  0.00    +0.000 C 
ATOM     72  C55 UNL A   1       9.208   1.223  27.239  1.00  0.00    +0.000 C 
ATOM     73  N5  UNL A   1       8.027   1.916  27.030  1.00  0.00    +0.000 N 
ATOM     74  C56 UNL A   1       8.409   3.087  26.608  1.00  0.00    +0.000 C 
ATOM     75  C57 UNL A   1       7.721   3.813  25.517  1.00  0.00    +0.000 C 
ATOM     87  C64 UNL A   1       7.960   3.137  24.366  1.00  0.00    +0.000 C 
ATOM     88  C65 UNL A   1       7.301   3.231  23.085  1.00  0.00    +0.000 C 
ATOM     89  C66 UNL A   1       7.875   2.339  22.252  1.00  0.00    +0.000 C 
ATOM     90  C67 UNL A   1       9.068   1.758  22.884  1.00  0.00    +0.000 C 
ATOM     91  N6  UNL A   1       8.998   2.200  24.183  1.00  0.00    +0.000 N 
ATOM     92  C68 UNL A   1       9.789   3.445  26.893  1.00  0.00    +0.000 C 
ATOM     93  C69 UNL A   1      10.261   2.236  27.209  1.00  0.00    +0.000 C 
ATOM     94  C70 UNL A   1      13.537   0.906  23.151  1.00  0.00    +0.000 C 
ATOM     95  C71 UNL A   1      12.573   1.440  22.400  1.00  0.00    +0.000 C 
ENDROOT
BRANCH   39   38
ATOM     97  C73 UNL A   1       9.393   1.441  18.688  1.00  0.00    +0.000 C 
ATOM     35  C30 UNL A   1      10.026   0.326  18.153  1.00  0.00    +0.000 C 
ATOM     36  C31 UNL A   1      10.578  -0.654  18.984  1.00  0.00    +0.000 C 
ATOM    133  H34 UNL A   1      11.002  -1.506  18.584  1.00  0.00    +0.000 H 
ATOM     37  C32 UNL A   1      10.546  -0.458  20.363  1.00  0.00    +0.000 C 
ATOM     38  C33 UNL A   1      10.030   0.744  20.869  1.00  0.00    +0.000 C 
ATOM    134  H35 UNL A   1      10.897  -1.187  21.003  1.00  0.00    +0.000 H 
ATOM    145  H46 UNL A   1       9.270   2.651  20.386  1.00  0.00    +0.000 H 
ATOM    146  H47 UNL A   1       8.821   2.053  18.085  1.00  0.00    +0.000 H 
ATOM     96  C72 UNL A   1       9.531   1.723  20.019  1.00  0.00    +0.000 C 
BRANCH   35   33
ATOM     33  C29 UNL A   1      10.128   0.238  16.682  1.00  0.00    +0.000 C 
ATOM     34  O2  UNL A   1      10.165   1.238  16.002  1.00  0.00    +0.000 O 
BRANCH   33   32
ATOM    132  H33 UNL A   1      11.069  -1.448  16.057  1.00  0.00    +0.000 H 
ATOM     32  N2  UNL A   1      10.181  -1.028  16.112  1.00  0.00    +0.000 N 
BRANCH   32   31
ATOM    130  H31 UNL A   1       8.505  -1.191  14.906  1.00  0.00    +0.000 H 
ATOM    131  H32 UNL A   1       9.456  -2.668  15.098  1.00  0.00    +0.000 H 
ATOM     31  C28 UNL A   1       9.057  -1.803  15.586  1.00  0.00    +0.000 C 
BRANCH   31   30
ATOM    129  H30 UNL A   1       7.130  -2.030  16.377  1.00  0.00    +0.000 H 
ATOM     30  C27 UNL A   1       8.123  -2.280  16.684  1.00  0.00    +0.000 C 
ATOM    128  H29 UNL A   1       8.405  -1.800  17.598  1.00  0.00    +0.000 H 
BRANCH   30   29
ATOM     29  C26 UNL A   1       8.148  -3.800  16.910  1.00  0.00    +0.000 C 
ATOM    126  H27 UNL A   1       7.240  -4.069  17.409  1.00  0.00    +0.000 H 
ATOM    127  H28 UNL A   1       8.266  -4.227  15.936  1.00  0.00    +0.000 H 
BRANCH   29   28
ATOM    124  H25 UNL A   1       9.372  -5.411  17.563  1.00  0.00    +0.000 H 
ATOM     28  C25 UNL A   1       9.316  -4.357  17.739  1.00  0.00    +0.000 C 
ATOM    125  H26 UNL A   1      10.184  -3.819  17.421  1.00  0.00    +0.000 H 
BRANCH   28   27
ATOM    122  H23 UNL A   1       8.989  -3.106  19.423  1.00  0.00    +0.000 H 
ATOM     27  C24 UNL A   1       9.216  -4.137  19.249  1.00  0.00    +0.000 C 
ATOM    123  H24 UNL A   1       8.454  -4.799  19.603  1.00  0.00    +0.000 H 
BRANCH   27   26
ATOM    121  H22 UNL A   1      11.204  -3.717  19.826  1.00  0.00    +0.000 H 
ATOM     26  C23 UNL A   1      10.484  -4.482  20.026  1.00  0.00    +0.000 C 
ATOM    120  H21 UNL A   1      10.831  -5.443  19.708  1.00  0.00    +0.000 H 
BRANCH   26   25
ATOM     25  N1  UNL A   1      10.271  -4.517  21.453  1.00  0.00    +0.000 N 
ATOM    119  H20 UNL A   1       9.869  -5.346  21.803  1.00  0.00    +0.000 H 
BRANCH   25   23
ATOM     23  C22 UNL A   1      10.549  -3.558  22.384  1.00  0.00    +0.000 C 
ATOM     24  O1  UNL A   1      11.729  -3.223  22.520  1.00  0.00    +0.000 O 
BRANCH   23   22
ATOM    118  H19 UNL A   1       9.499  -1.915  23.169  1.00  0.00    +0.000 H 
ATOM    117  H18 UNL A   1       9.626  -3.303  24.276  1.00  0.00    +0.000 H 
ATOM     22  C21 UNL A   1       9.453  -2.979  23.270  1.00  0.00    +0.000 C 
BRANCH   22   21
ATOM      2  C2  UNL A   1       6.090  -1.199  20.652  1.00  0.00    +0.000 C 
ATOM     99  C74 UNL A   1       7.541  -1.561  21.087  1.00  0.00    +0.000 C 
ATOM      4  C4  UNL A   1       5.326  -2.564  20.716  1.00  0.00    +0.000 C 
ATOM      5  C5  UNL A   1       6.117  -3.315  21.721  1.00  0.00    +0.000 C 
ATOM     98  N7  UNL A   1       7.342  -2.742  21.919  1.00  0.00    +0.000 N 
ATOM      6  C6  UNL A   1       6.030  -4.405  22.541  1.00  0.00    +0.000 C 
ATOM    106  H7  UNL A   1       5.333  -3.058  19.768  1.00  0.00    +0.000 H 
ATOM    107  H8  UNL A   1       4.291  -2.467  20.968  1.00  0.00    +0.000 H 
ATOM     13  C13 UNL A   1       7.274  -4.475  23.266  1.00  0.00    +0.000 C 
ATOM    147  H48 UNL A   1       7.986  -0.765  21.647  1.00  0.00    +0.000 H 
ATOM    148  H49 UNL A   1       8.201  -1.729  20.262  1.00  0.00    +0.000 H 
ATOM     21  C20 UNL A   1       8.069  -3.397  22.872  1.00  0.00    +0.000 C 
BRANCH    2    1
ATOM      1  C1  UNL A   1       6.067  -0.589  19.252  1.00  0.00    +0.000 C 
ATOM    100  H1  UNL A   1       5.712  -1.316  18.551  1.00  0.00    +0.000 H 
ATOM    101  H2  UNL A   1       7.054  -0.283  18.979  1.00  0.00    +0.000 H 
ATOM    102  H3  UNL A   1       5.415   0.260  19.244  1.00  0.00    +0.000 H 
ENDBRANCH    2    1
BRANCH    2    3
ATOM    105  H6  UNL A   1       6.202   0.472  22.000  1.00  0.00    +0.000 H 
ATOM      3  C3  UNL A   1       5.452  -0.199  21.636  1.00  0.00    +0.000 C 
ATOM    103  H4  UNL A   1       5.022  -0.733  22.458  1.00  0.00    +0.000 H 
ATOM    104  H5  UNL A   1       4.689   0.357  21.133  1.00  0.00    +0.000 H 
ENDBRANCH    2    3
BRANCH    6    7
ATOM      7  C7  UNL A   1       4.924  -5.333  22.627  1.00  0.00    +0.000 C 
ATOM      8  C8  UNL A   1       3.803  -5.017  23.397  1.00  0.00    +0.000 C 
ATOM      9  C9  UNL A   1       2.632  -5.759  23.246  1.00  0.00    +0.000 C 
ATOM     10  C10 UNL A   1       2.586  -6.823  22.342  1.00  0.00    +0.000 C 
ATOM     11  C11 UNL A   1       3.722  -7.180  21.619  1.00  0.00    +0.000 C 
ATOM     12  C12 UNL A   1       4.889  -6.435  21.760  1.00  0.00    +0.000 C 
ATOM    108  H9  UNL A   1       3.841  -4.240  24.075  1.00  0.00    +0.000 H 
ATOM    109  H10 UNL A   1       1.797  -5.523  23.805  1.00  0.00    +0.000 H 
ATOM    111  H12 UNL A   1       3.698  -7.992  20.983  1.00  0.00    +0.000 H 
ATOM    112  H13 UNL A   1       5.733  -6.695  21.226  1.00  0.00    +0.000 H 
ATOM    110  H11 UNL A   1       1.706  -7.346  22.206  1.00  0.00    +0.000 H 
ENDBRANCH    6    7
BRANCH   13   14
ATOM     14  C14 UNL A   1       7.646  -5.516  24.217  1.00  0.00    +0.000 C 
ATOM     15  C15 UNL A   1       8.176  -6.725  23.744  1.00  0.00    +0.000 C 
ATOM     16  C16 UNL A   1       8.384  -7.798  24.614  1.00  0.00    +0.000 C 
ATOM    113  H14 UNL A   1       8.416  -6.822  22.744  1.00  0.00    +0.000 H 
ATOM     17  C17 UNL A   1       8.074  -7.661  25.965  1.00  0.00    +0.000 C 
ATOM     19  C18 UNL A   1       7.552  -6.463  26.450  1.00  0.00    +0.000 C 
ATOM     20  C19 UNL A   1       7.322  -5.400  25.572  1.00  0.00    +0.000 C 
ATOM    116  H17 UNL A   1       6.913  -4.522  25.928  1.00  0.00    +0.000 H 
ATOM    114  H15 UNL A   1       8.765  -8.689  24.257  1.00  0.00    +0.000 H 
ATOM    115  H16 UNL A   1       7.335  -6.363  27.453  1.00  0.00    +0.000 H 
ATOM     18 Cl1  UNL A   1       8.307  -8.987  27.036  1.00  0.00    +0.000 Cl
ENDBRANCH   13   14
ENDBRANCH   22   21
ENDBRANCH   23   22
ENDBRANCH   25   23
ENDBRANCH   26   25
ENDBRANCH   27   26
ENDBRANCH   28   27
ENDBRANCH   29   28
ENDBRANCH   30   29
ENDBRANCH   31   30
ENDBRANCH   32   31
ENDBRANCH   33   32
ENDBRANCH   35   33
ENDBRANCH   39   38
BRANCH   43   44
ATOM     44  C38 UNL A   1      14.570   0.561  26.165  1.00  0.00    +0.000 C 
ATOM     45  C39 UNL A   1      15.872   0.016  26.139  1.00  0.00    +0.000 C 
ATOM     46  F1  UNL A   1      16.177  -0.986  25.303  1.00  0.00    +0.000 F 
ATOM     47  C40 UNL A   1      16.865   0.425  27.034  1.00  0.00    +0.000 C 
ATOM     48  F2  UNL A   1      18.044  -0.211  27.056  1.00  0.00    +0.000 F 
ATOM     49  C41 UNL A   1      16.617   1.435  27.944  1.00  0.00    +0.000 C 
ATOM     50  F3  UNL A   1      17.546   1.787  28.843  1.00  0.00    +0.000 F 
ATOM     51  C42 UNL A   1      15.383   2.046  27.951  1.00  0.00    +0.000 C 
ATOM     52  F4  UNL A   1      15.118   3.018  28.836  1.00  0.00    +0.000 F 
ATOM     53  C43 UNL A   1      14.373   1.604  27.097  1.00  0.00    +0.000 C 
ATOM     54  F5  UNL A   1      13.177   2.166  27.300  1.00  0.00    +0.000 F 
ENDBRANCH   43   44
BRANCH   60   61
ATOM     65  F7  UNL A   1       5.461  -1.941  24.502  1.00  0.00    +0.000 F 
ATOM     66  C52 UNL A   1       5.562  -2.376  26.819  1.00  0.00    +0.000 C 
ATOM     67  F8  UNL A   1       4.450  -3.120  26.743  1.00  0.00    +0.000 F 
ATOM     68  C53 UNL A   1       6.215  -2.222  28.033  1.00  0.00    +0.000 C 
ATOM     69  F9  UNL A   1       5.744  -2.835  29.127  1.00  0.00    +0.000 F 
ATOM     70  C54 UNL A   1       7.374  -1.456  28.117  1.00  0.00    +0.000 C 
ATOM     71  F10 UNL A   1       7.990  -1.343  29.303  1.00  0.00    +0.000 F 
ATOM     61  C49 UNL A   1       7.923  -0.846  26.984  1.00  0.00    +0.000 C 
ATOM     62  C50 UNL A   1       7.262  -1.045  25.759  1.00  0.00    +0.000 C 
ATOM     63  F6  UNL A   1       7.775  -0.573  24.616  1.00  0.00    +0.000 F 
ATOM     64  C51 UNL A   1       6.080  -1.782  25.681  1.00  0.00    +0.000 C 
ENDBRANCH   60   61
BRANCH   75   76
ATOM     76  C58 UNL A   1       7.360   5.235  25.660  1.00  0.00    +0.000 C 
ATOM     77  C59 UNL A   1       7.750   6.192  24.711  1.00  0.00    +0.000 C 
ATOM     78  F11 UNL A   1       8.681   5.888  23.795  1.00  0.00    +0.000 F 
ATOM     79  C60 UNL A   1       7.123   7.439  24.634  1.00  0.00    +0.000 C 
ATOM     80  F12 UNL A   1       7.480   8.315  23.685  1.00  0.00    +0.000 F 
ATOM     81  C61 UNL A   1       6.063   7.738  25.473  1.00  0.00    +0.000 C 
ATOM     82  F13 UNL A   1       5.398   8.894  25.348  1.00  0.00    +0.000 F 
ATOM     83  C62 UNL A   1       5.650   6.800  26.400  1.00  0.00    +0.000 C 
ATOM     84  F14 UNL A   1       4.525   7.003  27.087  1.00  0.00    +0.000 F 
ATOM     85  C63 UNL A   1       6.313   5.585  26.526  1.00  0.00    +0.000 C 
ATOM     86  F15 UNL A   1       5.830   4.699  27.411  1.00  0.00    +0.000 F 
ENDBRANCH   75   76
TORSDOF 20
ENDMDL
MODEL 10
REMARK VINA RESULT:      -8.5     21.672     28.117
ROOT
ATOM    135  H36 UNL A   1      48.119  11.675  53.031  1.00  0.00    +0.000 H 
ATOM    136  H37 UNL A   1      48.776  13.471  51.180  1.00  0.00    +0.000 H 
ATOM    137  H38 UNL A   1      47.927   9.945  49.397  1.00  0.00    +0.000 H 
ATOM    138  H39 UNL A   1      42.154  14.837  46.237  1.00  0.00    +0.000 H 
ATOM    139  H40 UNL A   1      41.912  15.284  48.735  1.00  0.00    +0.000 H 
ATOM    140  H41 UNL A   1      44.776  12.310  48.309  1.00  0.00    +0.000 H 
ATOM    141  H42 UNL A   1      44.841  10.034  46.038  1.00  0.00    +0.000 H 
ATOM    142  H43 UNL A   1      46.597   9.948  47.928  1.00  0.00    +0.000 H 
ATOM    143  H44 UNL A   1      43.445   9.231  52.511  1.00  0.00    +0.000 H 
ATOM    144  H45 UNL A   1      41.828  10.873  51.357  1.00  0.00    +0.000 H 
ATOM     39  C34 UNL A   1      43.157  13.223  50.375  1.00  0.00    +0.000 C 
ATOM     40  C35 UNL A   1      43.762  11.993  50.952  1.00  0.00    +0.000 C 
ATOM     41  N3  UNL A   1      45.008  11.765  51.210  1.00  0.00    +0.000 N 
ATOM     42  C36 UNL A   1      45.070  10.456  51.684  1.00  0.00    +0.000 C 
ATOM     43  C37 UNL A   1      46.215   9.725  51.580  1.00  0.00    +0.000 C 
ATOM     55  C44 UNL A   1      47.348  10.579  51.324  1.00  0.00    +0.000 C 
ATOM     56  C45 UNL A   1      47.963  11.607  52.014  1.00  0.00    +0.000 C 
ATOM     57  C46 UNL A   1      48.335  12.553  51.014  1.00  0.00    +0.000 C 
ATOM     58  C47 UNL A   1      47.997  12.018  49.771  1.00  0.00    +0.000 C 
ATOM     59  N4  UNL A   1      47.787  10.687  50.028  1.00  0.00    +0.000 N 
ATOM     60  C48 UNL A   1      47.789  12.618  48.478  1.00  0.00    +0.000 C 
ATOM     72  C55 UNL A   1      47.077  12.052  47.461  1.00  0.00    +0.000 C 
ATOM     73  N5  UNL A   1      46.572  12.836  46.436  1.00  0.00    +0.000 N 
ATOM     74  C56 UNL A   1      45.513  12.196  46.031  1.00  0.00    +0.000 C 
ATOM     75  C57 UNL A   1      44.251  12.878  45.668  1.00  0.00    +0.000 C 
ATOM     87  C64 UNL A   1      43.716  13.377  46.810  1.00  0.00    +0.000 C 
ATOM     88  C65 UNL A   1      42.676  14.361  46.991  1.00  0.00    +0.000 C 
ATOM     89  C66 UNL A   1      42.503  14.549  48.314  1.00  0.00    +0.000 C 
ATOM     90  C67 UNL A   1      43.278  13.555  49.069  1.00  0.00    +0.000 C 
ATOM     91  N6  UNL A   1      44.061  12.957  48.111  1.00  0.00    +0.000 N 
ATOM     92  C68 UNL A   1      45.441  10.791  46.399  1.00  0.00    +0.000 C 
ATOM     93  C69 UNL A   1      46.384  10.772  47.346  1.00  0.00    +0.000 C 
ATOM     94  C70 UNL A   1      43.715  10.065  51.966  1.00  0.00    +0.000 C 
ATOM     95  C71 UNL A   1      42.857  10.931  51.426  1.00  0.00    +0.000 C 
ENDROOT
BRANCH   39   38
ATOM     97  C73 UNL A   1      41.827  15.676  52.784  1.00  0.00    +0.000 C 
ATOM     35  C30 UNL A   1      40.477  15.350  52.818  1.00  0.00    +0.000 C 
ATOM     36  C31 UNL A   1      39.993  14.222  52.146  1.00  0.00    +0.000 C 
ATOM    133  H34 UNL A   1      38.999  13.954  52.217  1.00  0.00    +0.000 H 
ATOM     37  C32 UNL A   1      40.879  13.469  51.380  1.00  0.00    +0.000 C 
ATOM     38  C33 UNL A   1      42.206  13.904  51.246  1.00  0.00    +0.000 C 
ATOM    134  H35 UNL A   1      40.564  12.602  50.916  1.00  0.00    +0.000 H 
ATOM    145  H46 UNL A   1      43.587  15.436  51.685  1.00  0.00    +0.000 H 
ATOM    146  H47 UNL A   1      42.206  16.383  53.432  1.00  0.00    +0.000 H 
ATOM     96  C72 UNL A   1      42.650  15.055  51.886  1.00  0.00    +0.000 C 
BRANCH   35   33
ATOM     33  C29 UNL A   1      39.572  16.257  53.553  1.00  0.00    +0.000 C 
ATOM     34  O2  UNL A   1      39.938  16.813  54.564  1.00  0.00    +0.000 O 
BRANCH   33   32
ATOM    132  H33 UNL A   1      38.045  15.903  52.264  1.00  0.00    +0.000 H 
ATOM     32  N2  UNL A   1      38.295  16.449  53.043  1.00  0.00    +0.000 N 
BRANCH   32   31
ATOM    130  H31 UNL A   1      37.746  18.074  54.205  1.00  0.00    +0.000 H 
ATOM    131  H32 UNL A   1      36.844  17.870  52.699  1.00  0.00    +0.000 H 
ATOM     31  C28 UNL A   1      37.279  17.377  53.542  1.00  0.00    +0.000 C 
BRANCH   31   30
ATOM    129  H30 UNL A   1      35.758  15.936  53.618  1.00  0.00    +0.000 H 
ATOM     30  C27 UNL A   1      36.165  16.663  54.289  1.00  0.00    +0.000 C 
ATOM    128  H29 UNL A   1      35.444  17.393  54.594  1.00  0.00    +0.000 H 
BRANCH   30   29
ATOM     29  C26 UNL A   1      36.638  15.901  55.537  1.00  0.00    +0.000 C 
ATOM    126  H27 UNL A   1      37.687  16.086  55.652  1.00  0.00    +0.000 H 
ATOM    127  H28 UNL A   1      36.030  16.268  56.338  1.00  0.00    +0.000 H 
BRANCH   29   28
ATOM    124  H25 UNL A   1      36.059  14.097  56.500  1.00  0.00    +0.000 H 
ATOM     28  C25 UNL A   1      36.432  14.379  55.538  1.00  0.00    +0.000 C 
ATOM    125  H26 UNL A   1      35.754  14.174  54.735  1.00  0.00    +0.000 H 
BRANCH   28   27
ATOM    122  H23 UNL A   1      37.388  12.517  55.183  1.00  0.00    +0.000 H 
ATOM     27  C24 UNL A   1      37.682  13.544  55.255  1.00  0.00    +0.000 C 
ATOM    123  H24 UNL A   1      38.101  13.924  54.347  1.00  0.00    +0.000 H 
BRANCH   27   26
ATOM    121  H22 UNL A   1      38.672  12.815  56.972  1.00  0.00    +0.000 H 
ATOM     26  C23 UNL A   1      38.773  13.654  56.316  1.00  0.00    +0.000 C 
ATOM    120  H21 UNL A   1      38.651  14.579  56.839  1.00  0.00    +0.000 H 
BRANCH   26   25
ATOM     25  N1  UNL A   1      40.102  13.612  55.755  1.00  0.00    +0.000 N 
ATOM    119  H20 UNL A   1      40.334  14.358  55.156  1.00  0.00    +0.000 H 
BRANCH   25   23
ATOM     23  C22 UNL A   1      41.081  12.677  55.941  1.00  0.00    +0.000 C 
ATOM     24  O1  UNL A   1      41.341  12.350  57.101  1.00  0.00    +0.000 O 
BRANCH   23   22
ATOM    118  H19 UNL A   1      42.104  12.943  54.125  1.00  0.00    +0.000 H 
ATOM    117  H18 UNL A   1      41.267  11.380  54.274  1.00  0.00    +0.000 H 
ATOM     22  C21 UNL A   1      41.869  12.118  54.763  1.00  0.00    +0.000 C 
BRANCH   22   21
ATOM      2  C2  UNL A   1      43.183   7.982  56.343  1.00  0.00    +0.000 C 
ATOM     99  C74 UNL A   1      42.380   9.015  55.498  1.00  0.00    +0.000 C 
ATOM      4  C4  UNL A   1      44.679   8.365  56.085  1.00  0.00    +0.000 C 
ATOM      5  C5  UNL A   1      44.576   9.805  55.745  1.00  0.00    +0.000 C 
ATOM     98  N7  UNL A   1      43.292  10.150  55.427  1.00  0.00    +0.000 N 
ATOM      6  C6  UNL A   1      45.345  10.931  55.650  1.00  0.00    +0.000 C 
ATOM    106  H7  UNL A   1      45.089   7.802  55.272  1.00  0.00    +0.000 H 
ATOM    107  H8  UNL A   1      45.325   8.162  56.913  1.00  0.00    +0.000 H 
ATOM     13  C13 UNL A   1      44.462  12.000  55.258  1.00  0.00    +0.000 C 
ATOM    147  H48 UNL A   1      41.466   9.283  55.984  1.00  0.00    +0.000 H 
ATOM    148  H49 UNL A   1      42.091   8.642  54.538  1.00  0.00    +0.000 H 
ATOM     21  C20 UNL A   1      43.170  11.482  55.152  1.00  0.00    +0.000 C 
BRANCH    2    1
ATOM      1  C1  UNL A   1      42.871   6.550  55.912  1.00  0.00    +0.000 C 
ATOM    100  H1  UNL A   1      42.429   6.558  54.938  1.00  0.00    +0.000 H 
ATOM    101  H2  UNL A   1      42.191   6.108  56.608  1.00  0.00    +0.000 H 
ATOM    102  H3  UNL A   1      43.776   5.979  55.887  1.00  0.00    +0.000 H 
ENDBRANCH    2    1
BRANCH    2    3
ATOM    105  H6  UNL A   1      42.968   9.150  58.135  1.00  0.00    +0.000 H 
ATOM      3  C3  UNL A   1      42.861   8.126  57.843  1.00  0.00    +0.000 C 
ATOM    103  H4  UNL A   1      43.536   7.520  58.412  1.00  0.00    +0.000 H 
ATOM    104  H5  UNL A   1      41.856   7.806  58.024  1.00  0.00    +0.000 H 
ENDBRANCH    2    3
BRANCH    6    7
ATOM      7  C7  UNL A   1      46.774  11.018  55.857  1.00  0.00    +0.000 C 
ATOM      8  C8  UNL A   1      47.280  11.645  56.998  1.00  0.00    +0.000 C 
ATOM      9  C9  UNL A   1      48.620  11.471  57.342  1.00  0.00    +0.000 C 
ATOM     10  C10 UNL A   1      49.456  10.688  56.542  1.00  0.00    +0.000 C 
ATOM     11  C11 UNL A   1      48.969  10.115  55.369  1.00  0.00    +0.000 C 
ATOM     12  C12 UNL A   1      47.629  10.278  55.028  1.00  0.00    +0.000 C 
ATOM    108  H9  UNL A   1      46.666  12.234  57.582  1.00  0.00    +0.000 H 
ATOM    109  H10 UNL A   1      48.996  11.923  58.190  1.00  0.00    +0.000 H 
ATOM    111  H12 UNL A   1      49.598   9.572  54.757  1.00  0.00    +0.000 H 
ATOM    112  H13 UNL A   1      47.264   9.854  54.161  1.00  0.00    +0.000 H 
ATOM    110  H11 UNL A   1      50.437  10.533  56.820  1.00  0.00    +0.000 H 
ENDBRANCH    6    7
BRANCH   13   14
ATOM     14  C14 UNL A   1      44.863  13.375  54.983  1.00  0.00    +0.000 C 
ATOM     15  C15 UNL A   1      44.363  14.412  55.785  1.00  0.00    +0.000 C 
ATOM     16  C16 UNL A   1      44.594  15.747  55.445  1.00  0.00    +0.000 C 
ATOM    113  H14 UNL A   1      43.820  14.186  56.633  1.00  0.00    +0.000 H 
ATOM     17  C17 UNL A   1      45.340  16.051  54.308  1.00  0.00    +0.000 C 
ATOM     19  C18 UNL A   1      45.847  15.030  53.506  1.00  0.00    +0.000 C 
ATOM     20  C19 UNL A   1      45.594  13.696  53.835  1.00  0.00    +0.000 C 
ATOM    116  H17 UNL A   1      45.949  12.942  53.227  1.00  0.00    +0.000 H 
ATOM    114  H15 UNL A   1      44.215  16.506  56.033  1.00  0.00    +0.000 H 
ATOM    115  H16 UNL A   1      46.409  15.260  52.671  1.00  0.00    +0.000 H 
ATOM     18 Cl1  UNL A   1      45.608  17.693  53.873  1.00  0.00    +0.000 Cl
ENDBRANCH   13   14
ENDBRANCH   22   21
ENDBRANCH   23   22
ENDBRANCH   25   23
ENDBRANCH   26   25
ENDBRANCH   27   26
ENDBRANCH   28   27
ENDBRANCH   29   28
ENDBRANCH   30   29
ENDBRANCH   31   30
ENDBRANCH   32   31
ENDBRANCH   33   32
ENDBRANCH   35   33
ENDBRANCH   39   38
BRANCH   43   44
ATOM     44  C38 UNL A   1      46.269   8.231  51.346  1.00  0.00    +0.000 C 
ATOM     45  C39 UNL A   1      45.829   7.716  50.108  1.00  0.00    +0.000 C 
ATOM     46  F1  UNL A   1      45.610   8.532  49.066  1.00  0.00    +0.000 F 
ATOM     47  C40 UNL A   1      45.515   6.365  49.936  1.00  0.00    +0.000 C 
ATOM     48  F2  UNL A   1      44.979   5.947  48.782  1.00  0.00    +0.000 F 
ATOM     49  C41 UNL A   1      45.688   5.467  50.972  1.00  0.00    +0.000 C 
ATOM     50  F3  UNL A   1      45.331   4.184  50.831  1.00  0.00    +0.000 F 
ATOM     51  C42 UNL A   1      46.189   5.916  52.174  1.00  0.00    +0.000 C 
ATOM     52  F4  UNL A   1      46.350   5.064  53.197  1.00  0.00    +0.000 F 
ATOM     53  C43 UNL A   1      46.451   7.272  52.366  1.00  0.00    +0.000 C 
ATOM     54  F5  UNL A   1      46.784   7.610  53.616  1.00  0.00    +0.000 F 
ENDBRANCH   43   44
BRANCH   60   61
ATOM     65  F7  UNL A   1      46.914  17.478  48.675  1.00  0.00    +0.000 F 
ATOM     66  C52 UNL A   1      49.097  16.725  48.191  1.00  0.00    +0.000 C 
ATOM     67  F8  UNL A   1      49.540  17.990  48.148  1.00  0.00    +0.000 F 
ATOM     68  C53 UNL A   1      49.977  15.673  47.989  1.00  0.00    +0.000 C 
ATOM     69  F9  UNL A   1      51.276  15.920  47.772  1.00  0.00    +0.000 F 
ATOM     70  C54 UNL A   1      49.524  14.357  48.039  1.00  0.00    +0.000 C 
ATOM     71  F10 UNL A   1      50.406  13.362  47.857  1.00  0.00    +0.000 F 
ATOM     61  C49 UNL A   1      48.186  14.061  48.317  1.00  0.00    +0.000 C 
ATOM     62  C50 UNL A   1      47.320  15.145  48.551  1.00  0.00    +0.000 C 
ATOM     63  F6  UNL A   1      46.048  14.942  48.914  1.00  0.00    +0.000 F 
ATOM     64  C51 UNL A   1      47.766  16.464  48.464  1.00  0.00    +0.000 C 
ENDBRANCH   60   61
BRANCH   75   76
ATOM     76  C58 UNL A   1      43.542  12.550  44.418  1.00  0.00    +0.000 C 
ATOM     77  C59 UNL A   1      42.803  11.365  44.280  1.00  0.00    +0.000 C 
ATOM     78  F11 UNL A   1      42.939  10.382  45.181  1.00  0.00    +0.000 F 
ATOM     79  C60 UNL A   1      41.848  11.216  43.270  1.00  0.00    +0.000 C 
ATOM     80  F12 UNL A   1      41.120  10.094  43.192  1.00  0.00    +0.000 F 
ATOM     81  C61 UNL A   1      41.581  12.263  42.404  1.00  0.00    +0.000 C 
ATOM     82  F13 UNL A   1      40.607  12.162  41.490  1.00  0.00    +0.000 F 
ATOM     83  C62 UNL A   1      42.284  13.445  42.538  1.00  0.00    +0.000 C 
ATOM     84  F14 UNL A   1      41.914  14.515  41.832  1.00  0.00    +0.000 F 
ATOM     85  C63 UNL A   1      43.280  13.576  43.498  1.00  0.00    +0.000 C 
ATOM     86  F15 UNL A   1      43.890  14.767  43.607  1.00  0.00    +0.000 F 
ENDBRANCH   75   76
TORSDOF 20
ENDMDL
