MODEL 1
REMARK VINA RESULT:     -10.3      0.000      0.000
ROOT
ATOM     19  C15 UNL A   1      40.022  28.847  29.386  1.00  0.00    +0.000 C 
ATOM     20  C16 UNL A   1      40.868  29.745  30.243  1.00  0.00    +0.000 C 
ATOM     21  N3  UNL A   1      42.116  29.601  30.614  1.00  0.00    +0.000 N 
ATOM     22  C17 UNL A   1      42.422  30.734  31.357  1.00  0.00    +0.000 C 
ATOM     23  C18 UNL A   1      43.574  31.035  32.000  1.00  0.00    +0.000 C 
ATOM     35  C25 UNL A   1      44.733  30.183  32.036  1.00  0.00    +0.000 C 
ATOM     36  C26 UNL A   1      45.923  30.371  32.716  1.00  0.00    +0.000 C 
ATOM     37  C27 UNL A   1      46.768  29.294  32.426  1.00  0.00    +0.000 C 
ATOM     38  C28 UNL A   1      46.090  28.417  31.596  1.00  0.00    +0.000 C 
ATOM     39  N4  UNL A   1      44.844  28.976  31.361  1.00  0.00    +0.000 N 
ATOM     40  C29 UNL A   1      46.542  27.162  31.054  1.00  0.00    +0.000 C 
ATOM     52  C36 UNL A   1      45.809  26.351  30.254  1.00  0.00    +0.000 C 
ATOM     53  N5  UNL A   1      44.512  26.523  29.791  1.00  0.00    +0.000 N 
ATOM     54  C37 UNL A   1      44.254  25.477  29.046  1.00  0.00    +0.000 C 
ATOM     55  C38 UNL A   1      42.991  25.125  28.310  1.00  0.00    +0.000 C 
ATOM     67  C45 UNL A   1      41.924  25.941  28.401  1.00  0.00    +0.000 C 
ATOM     68  C46 UNL A   1      40.635  25.727  27.750  1.00  0.00    +0.000 C 
ATOM     69  C47 UNL A   1      39.825  26.761  28.030  1.00  0.00    +0.000 C 
ATOM     70  C48 UNL A   1      40.530  27.696  28.908  1.00  0.00    +0.000 C 
ATOM     71  N6  UNL A   1      41.766  27.124  29.081  1.00  0.00    +0.000 N 
ATOM     72  C49 UNL A   1      45.373  24.530  28.931  1.00  0.00    +0.000 C 
ATOM     73  C50 UNL A   1      46.283  25.092  29.713  1.00  0.00    +0.000 C 
ATOM     74  C51 UNL A   1      41.243  31.576  31.350  1.00  0.00    +0.000 C 
ATOM     75  C52 UNL A   1      40.236  30.983  30.727  1.00  0.00    +0.000 C 
ATOM    111  H21 UNL A   1      46.149  31.169  33.330  1.00  0.00    +0.000 H 
ATOM    112  H22 UNL A   1      47.732  29.172  32.773  1.00  0.00    +0.000 H 
ATOM    113  H23 UNL A   1      44.142  28.576  30.799  1.00  0.00    +0.000 H 
ATOM    114  H24 UNL A   1      40.386  24.913  27.168  1.00  0.00    +0.000 H 
ATOM    115  H25 UNL A   1      38.861  26.877  27.682  1.00  0.00    +0.000 H 
ATOM    116  H26 UNL A   1      42.471  27.523  29.640  1.00  0.00    +0.000 H 
ATOM    117  H27 UNL A   1      45.433  23.656  28.386  1.00  0.00    +0.000 H 
ATOM    118  H28 UNL A   1      47.211  24.687  29.912  1.00  0.00    +0.000 H 
ATOM    119  H29 UNL A   1      41.195  32.514  31.775  1.00  0.00    +0.000 H 
ATOM    120  H30 UNL A   1      39.261  31.304  30.612  1.00  0.00    +0.000 H 
ENDROOT
BRANCH   19   18
ATOM     76  C53 UNL A   1      38.414  29.796  27.729  1.00  0.00    +0.000 C 
ATOM    109  H19 UNL A   1      35.488  29.334  30.153  1.00  0.00    +0.000 H 
ATOM     77  C54 UNL A   1      37.131  30.188  27.354  1.00  0.00    +0.000 C 
ATOM     15  C11 UNL A   1      36.054  29.964  28.217  1.00  0.00    +0.000 C 
ATOM     16  C12 UNL A   1      36.278  29.457  29.500  1.00  0.00    +0.000 C 
ATOM     17  C13 UNL A   1      37.573  29.118  29.897  1.00  0.00    +0.000 C 
ATOM    110  H20 UNL A   1      37.741  28.764  30.851  1.00  0.00    +0.000 H 
ATOM     18  C14 UNL A   1      38.647  29.258  29.004  1.00  0.00    +0.000 C 
ATOM    121  H31 UNL A   1      39.197  29.902  27.066  1.00  0.00    +0.000 H 
ATOM    122  H32 UNL A   1      36.975  30.643  26.441  1.00  0.00    +0.000 H 
BRANCH   15   13
ATOM     13  C10 UNL A   1      34.667  30.275  27.806  1.00  0.00    +0.000 C 
ATOM     14  O2  UNL A   1      34.093  31.245  28.292  1.00  0.00    +0.000 O 
BRANCH   13   12
ATOM    108  H18 UNL A   1      34.424  29.439  26.002  1.00  0.00    +0.000 H 
ATOM     12  N2  UNL A   1      34.021  29.472  26.900  1.00  0.00    +0.000 N 
BRANCH   12   11
ATOM    106  H16 UNL A   1      32.538  28.695  28.106  1.00  0.00    +0.000 H 
ATOM     11  C9  UNL A   1      32.826  28.662  27.076  1.00  0.00    +0.000 C 
ATOM    107  H17 UNL A   1      32.063  29.066  26.443  1.00  0.00    +0.000 H 
BRANCH   11   10
ATOM    105  H15 UNL A   1      32.084  26.831  26.383  1.00  0.00    +0.000 H 
ATOM     10  C8  UNL A   1      33.043  27.207  26.674  1.00  0.00    +0.000 C 
ATOM    104  H14 UNL A   1      33.465  26.690  27.510  1.00  0.00    +0.000 H 
BRANCH   10    9
ATOM      9  C7  UNL A   1      33.966  26.999  25.471  1.00  0.00    +0.000 C 
ATOM    102  H12 UNL A   1      33.637  27.648  24.686  1.00  0.00    +0.000 H 
ATOM    103  H13 UNL A   1      34.956  27.212  25.816  1.00  0.00    +0.000 H 
BRANCH    9    8
ATOM    100  H10 UNL A   1      33.018  25.312  24.600  1.00  0.00    +0.000 H 
ATOM    101  H11 UNL A   1      34.725  25.581  24.127  1.00  0.00    +0.000 H 
ATOM      8  C6  UNL A   1      34.006  25.571  24.920  1.00  0.00    +0.000 C 
BRANCH    8    7
ATOM     98  H8  UNL A   1      35.153  23.844  25.393  1.00  0.00    +0.000 H 
ATOM     99  H9  UNL A   1      34.940  25.020  26.722  1.00  0.00    +0.000 H 
ATOM      7  C5  UNL A   1      34.481  24.498  25.908  1.00  0.00    +0.000 C 
BRANCH    7    6
ATOM     97  H7  UNL A   1      32.626  24.303  26.933  1.00  0.00    +0.000 H 
ATOM      6  C4  UNL A   1      33.360  23.645  26.519  1.00  0.00    +0.000 C 
ATOM     96  H6  UNL A   1      33.778  23.014  27.277  1.00  0.00    +0.000 H 
BRANCH    6    5
ATOM      5  N1  UNL A   1      32.713  22.813  25.517  1.00  0.00    +0.000 N 
ATOM     95  H5  UNL A   1      33.268  22.195  24.990  1.00  0.00    +0.000 H 
BRANCH    5    3
ATOM      3  C3  UNL A   1      31.358  22.854  25.274  1.00  0.00    +0.000 C 
ATOM      4  O1  UNL A   1      30.607  22.525  26.190  1.00  0.00    +0.000 O 
BRANCH    3    2
ATOM      2  C2  UNL A   1      30.892  23.391  23.917  1.00  0.00    +0.000 C 
ATOM     94  H4  UNL A   1      29.871  23.084  23.820  1.00  0.00    +0.000 H 
BRANCH    2    1
ATOM      1  C1  UNL A   1      31.828  22.798  22.851  1.00  0.00    +0.000 C 
ATOM     91  H1  UNL A   1      32.291  23.591  22.302  1.00  0.00    +0.000 H 
ATOM     92  H2  UNL A   1      31.261  22.185  22.182  1.00  0.00    +0.000 H 
ATOM     93  H3  UNL A   1      32.581  22.206  23.326  1.00  0.00    +0.000 H 
ENDBRANCH    2    1
BRANCH    2   78
ATOM    130  H40 UNL A   1      29.935  27.806  25.231  1.00  0.00    +0.000 H 
ATOM     78  C55 UNL A   1      30.791  24.906  23.748  1.00  0.00    +0.000 C 
ATOM     79  C56 UNL A   1      31.304  25.469  22.561  1.00  0.00    +0.000 C 
ATOM     80  C57 UNL A   1      31.359  26.853  22.370  1.00  0.00    +0.000 C 
ATOM     81  C58 UNL A   1      30.905  27.728  23.360  1.00  0.00    +0.000 C 
ATOM     88  C64 UNL A   1      30.317  27.181  24.504  1.00  0.00    +0.000 C 
ATOM     89  C65 UNL A   1      30.240  25.794  24.676  1.00  0.00    +0.000 C 
ATOM     90  F16 UNL A   1      29.590  25.359  25.761  1.00  0.00    +0.000 F 
ATOM    123  H33 UNL A   1      31.649  24.845  21.815  1.00  0.00    +0.000 H 
ATOM    124  H34 UNL A   1      31.737  27.232  21.488  1.00  0.00    +0.000 H 
BRANCH   81   82
ATOM     82  C59 UNL A   1      31.052  29.225  23.199  1.00  0.00    +0.000 C 
ATOM    125  H35 UNL A   1      31.552  29.419  22.273  1.00  0.00    +0.000 H 
ATOM    126  H36 UNL A   1      31.610  29.581  24.040  1.00  0.00    +0.000 H 
BRANCH   82   83
ATOM    129  H39 UNL A   1      26.464  30.829  22.359  1.00  0.00    +0.000 H 
ATOM     83  C60 UNL A   1      29.734  29.956  23.195  1.00  0.00    +0.000 C 
ATOM     84  C61 UNL A   1      29.372  31.087  23.904  1.00  0.00    +0.000 C 
ATOM     85  C62 UNL A   1      28.038  31.504  23.629  1.00  0.00    +0.000 C 
ATOM     86  C63 UNL A   1      27.427  30.690  22.703  1.00  0.00    +0.000 C 
ATOM     87  S1  UNL A   1      28.451  29.420  22.191  1.00  0.00    +0.000 S 
ATOM    127  H37 UNL A   1      30.000  31.576  24.561  1.00  0.00    +0.000 H 
ATOM    128  H38 UNL A   1      27.585  32.320  24.070  1.00  0.00    +0.000 H 
ENDBRANCH   82   83
ENDBRANCH   81   82
ENDBRANCH    2   78
ENDBRANCH    3    2
ENDBRANCH    5    3
ENDBRANCH    6    5
ENDBRANCH    7    6
ENDBRANCH    8    7
ENDBRANCH    9    8
ENDBRANCH   10    9
ENDBRANCH   11   10
ENDBRANCH   12   11
ENDBRANCH   13   12
ENDBRANCH   15   13
ENDBRANCH   19   18
BRANCH   23   24
ATOM     33  C24 UNL A   1      44.122  33.495  32.083  1.00  0.00    +0.000 C 
ATOM     34  F5  UNL A   1      44.510  33.437  30.800  1.00  0.00    +0.000 F 
ATOM     24  C19 UNL A   1      43.637  32.347  32.727  1.00  0.00    +0.000 C 
ATOM     25  C20 UNL A   1      43.248  32.460  34.069  1.00  0.00    +0.000 C 
ATOM     26  F1  UNL A   1      42.767  31.394  34.725  1.00  0.00    +0.000 F 
ATOM     27  C21 UNL A   1      43.318  33.682  34.734  1.00  0.00    +0.000 C 
ATOM     28  F2  UNL A   1      42.899  33.777  36.003  1.00  0.00    +0.000 F 
ATOM     29  C22 UNL A   1      43.805  34.803  34.080  1.00  0.00    +0.000 C 
ATOM     30  F3  UNL A   1      43.876  35.977  34.722  1.00  0.00    +0.000 F 
ATOM     31  C23 UNL A   1      44.214  34.710  32.757  1.00  0.00    +0.000 C 
ATOM     32  F4  UNL A   1      44.695  35.789  32.128  1.00  0.00    +0.000 F 
ENDBRANCH   23   24
BRANCH   40   41
ATOM     41  C30 UNL A   1      47.924  26.704  31.413  1.00  0.00    +0.000 C 
ATOM     42  C31 UNL A   1      48.150  25.833  32.488  1.00  0.00    +0.000 C 
ATOM     43  F6  UNL A   1      47.127  25.428  33.256  1.00  0.00    +0.000 F 
ATOM     44  C32 UNL A   1      49.436  25.400  32.798  1.00  0.00    +0.000 C 
ATOM     45  F7  UNL A   1      49.635  24.598  33.853  1.00  0.00    +0.000 F 
ATOM     46  C33 UNL A   1      50.513  25.809  32.026  1.00  0.00    +0.000 C 
ATOM     47  F8  UNL A   1      51.750  25.387  32.323  1.00  0.00    +0.000 F 
ATOM     48  C34 UNL A   1      50.310  26.660  30.951  1.00  0.00    +0.000 C 
ATOM     49  F9  UNL A   1      51.349  27.048  30.197  1.00  0.00    +0.000 F 
ATOM     50  C35 UNL A   1      49.029  27.113  30.651  1.00  0.00    +0.000 C 
ATOM     51  F10 UNL A   1      48.863  27.943  29.611  1.00  0.00    +0.000 F 
ENDBRANCH   40   41
BRANCH   55   56
ATOM     65  C44 UNL A   1      43.225  23.857  26.148  1.00  0.00    +0.000 C 
ATOM     66  F15 UNL A   1      43.632  24.979  25.538  1.00  0.00    +0.000 F 
ATOM     56  C39 UNL A   1      42.898  23.877  27.511  1.00  0.00    +0.000 C 
ATOM     57  C40 UNL A   1      42.475  22.680  28.102  1.00  0.00    +0.000 C 
ATOM     58  F11 UNL A   1      42.172  22.648  29.408  1.00  0.00    +0.000 F 
ATOM     59  C41 UNL A   1      42.394  21.502  27.361  1.00  0.00    +0.000 C 
ATOM     60  F12 UNL A   1      42.020  20.362  27.959  1.00  0.00    +0.000 F 
ATOM     61  C42 UNL A   1      42.713  21.506  26.012  1.00  0.00    +0.000 C 
ATOM     62  F13 UNL A   1      42.632  20.375  25.299  1.00  0.00    +0.000 F 
ATOM     63  C43 UNL A   1      43.123  22.684  25.404  1.00  0.00    +0.000 C 
ATOM     64  F14 UNL A   1      43.420  22.693  24.097  1.00  0.00    +0.000 F 
ENDBRANCH   55   56
TORSDOF 19
ENDMDL
MODEL 2
REMARK VINA RESULT:     -10.1     19.399     24.624
ROOT
ATOM     19  C15 UNL A   1      53.120  20.371  11.594  1.00  0.00    +0.000 C 
ATOM     20  C16 UNL A   1      54.451  19.707  11.383  1.00  0.00    +0.000 C 
ATOM     21  N3  UNL A   1      55.448  19.566  12.221  1.00  0.00    +0.000 N 
ATOM     22  C17 UNL A   1      56.414  18.839  11.538  1.00  0.00    +0.000 C 
ATOM     23  C18 UNL A   1      57.650  18.477  11.956  1.00  0.00    +0.000 C 
ATOM     35  C25 UNL A   1      58.205  18.812  13.241  1.00  0.00    +0.000 C 
ATOM     36  C26 UNL A   1      59.472  18.547  13.730  1.00  0.00    +0.000 C 
ATOM     37  C27 UNL A   1      59.546  19.036  15.040  1.00  0.00    +0.000 C 
ATOM     38  C28 UNL A   1      58.338  19.636  15.352  1.00  0.00    +0.000 C 
ATOM     39  N4  UNL A   1      57.523  19.489  14.241  1.00  0.00    +0.000 N 
ATOM     40  C29 UNL A   1      57.952  20.296  16.572  1.00  0.00    +0.000 C 
ATOM     52  C36 UNL A   1      56.748  20.875  16.796  1.00  0.00    +0.000 C 
ATOM     53  N5  UNL A   1      55.655  20.969  15.947  1.00  0.00    +0.000 N 
ATOM     54  C37 UNL A   1      54.729  21.607  16.621  1.00  0.00    +0.000 C 
ATOM     55  C38 UNL A   1      53.347  22.009  16.187  1.00  0.00    +0.000 C 
ATOM     67  C45 UNL A   1      52.940  21.728  14.935  1.00  0.00    +0.000 C 
ATOM     68  C46 UNL A   1      51.633  22.059  14.374  1.00  0.00    +0.000 C 
ATOM     69  C47 UNL A   1      51.564  21.592  13.117  1.00  0.00    +0.000 C 
ATOM     70  C48 UNL A   1      52.836  20.953  12.774  1.00  0.00    +0.000 C 
ATOM     71  N6  UNL A   1      53.594  21.088  13.910  1.00  0.00    +0.000 N 
ATOM     72  C49 UNL A   1      55.125  21.970  17.990  1.00  0.00    +0.000 C 
ATOM     73  C50 UNL A   1      56.375  21.531  18.033  1.00  0.00    +0.000 C 
ATOM     74  C51 UNL A   1      55.869  18.531  10.233  1.00  0.00    +0.000 C 
ATOM     75  C52 UNL A   1      54.683  19.097  10.064  1.00  0.00    +0.000 C 
ATOM    111  H21 UNL A   1      60.231  18.071  13.218  1.00  0.00    +0.000 H 
ATOM    112  H22 UNL A   1      60.363  18.961  15.666  1.00  0.00    +0.000 H 
ATOM    113  H23 UNL A   1      56.598  19.817  14.172  1.00  0.00    +0.000 H 
ATOM    114  H24 UNL A   1      50.884  22.572  14.864  1.00  0.00    +0.000 H 
ATOM    115  H25 UNL A   1      50.746  21.670  12.493  1.00  0.00    +0.000 H 
ATOM    116  H26 UNL A   1      54.519  20.758  13.983  1.00  0.00    +0.000 H 
ATOM    117  H27 UNL A   1      54.574  22.442  18.723  1.00  0.00    +0.000 H 
ATOM    118  H28 UNL A   1      57.003  21.642  18.845  1.00  0.00    +0.000 H 
ATOM    119  H29 UNL A   1      56.342  17.948   9.525  1.00  0.00    +0.000 H 
ATOM    120  H30 UNL A   1      54.079  19.109   9.227  1.00  0.00    +0.000 H 
ENDROOT
BRANCH   19   18
ATOM     76  C53 UNL A   1      51.900  21.443   9.698  1.00  0.00    +0.000 C 
ATOM    109  H19 UNL A   1      49.795  18.295   9.142  1.00  0.00    +0.000 H 
ATOM     77  C54 UNL A   1      50.934  21.420   8.694  1.00  0.00    +0.000 C 
ATOM     15  C11 UNL A   1      50.208  20.250   8.454  1.00  0.00    +0.000 C 
ATOM     16  C12 UNL A   1      50.364  19.143   9.293  1.00  0.00    +0.000 C 
ATOM     17  C13 UNL A   1      51.291  19.187  10.336  1.00  0.00    +0.000 C 
ATOM    110  H20 UNL A   1      51.392  18.378  10.968  1.00  0.00    +0.000 H 
ATOM     18  C14 UNL A   1      52.087  20.327  10.529  1.00  0.00    +0.000 C 
ATOM    121  H31 UNL A   1      52.481  22.285   9.832  1.00  0.00    +0.000 H 
ATOM    122  H32 UNL A   1      50.755  22.265   8.129  1.00  0.00    +0.000 H 
BRANCH   15   13
ATOM     13  C10 UNL A   1      49.249  20.162   7.329  1.00  0.00    +0.000 C 
ATOM     14  O2  UNL A   1      48.090  19.823   7.546  1.00  0.00    +0.000 O 
BRANCH   13   12
ATOM    108  H18 UNL A   1      49.812  21.394   5.854  1.00  0.00    +0.000 H 
ATOM     12  N2  UNL A   1      49.661  20.441   6.051  1.00  0.00    +0.000 N 
BRANCH   12   11
ATOM    106  H16 UNL A   1      49.526  18.565   5.203  1.00  0.00    +0.000 H 
ATOM     11  C9  UNL A   1      49.905  19.531   4.944  1.00  0.00    +0.000 C 
ATOM    107  H17 UNL A   1      49.411  19.928   4.081  1.00  0.00    +0.000 H 
BRANCH   11   10
ATOM    105  H15 UNL A   1      51.584  20.110   3.833  1.00  0.00    +0.000 H 
ATOM     10  C8  UNL A   1      51.389  19.401   4.612  1.00  0.00    +0.000 C 
ATOM    104  H14 UNL A   1      51.577  18.389   4.322  1.00  0.00    +0.000 H 
BRANCH   10    9
ATOM      9  C7  UNL A   1      52.341  19.753   5.757  1.00  0.00    +0.000 C 
ATOM    102  H12 UNL A   1      52.805  20.689   5.526  1.00  0.00    +0.000 H 
ATOM    103  H13 UNL A   1      51.742  19.780   6.644  1.00  0.00    +0.000 H 
BRANCH    9    8
ATOM    100  H10 UNL A   1      53.516  18.087   5.168  1.00  0.00    +0.000 H 
ATOM    101  H11 UNL A   1      54.336  19.295   6.207  1.00  0.00    +0.000 H 
ATOM      8  C6  UNL A   1      53.447  18.728   6.022  1.00  0.00    +0.000 C 
BRANCH    8    7
ATOM     98  H8  UNL A   1      53.592  18.387   8.116  1.00  0.00    +0.000 H 
ATOM     99  H9  UNL A   1      52.198  17.621   7.302  1.00  0.00    +0.000 H 
ATOM      7  C5  UNL A   1      53.243  17.847   7.262  1.00  0.00    +0.000 C 
BRANCH    7    6
ATOM     97  H7  UNL A   1      53.810  15.998   8.150  1.00  0.00    +0.000 H 
ATOM      6  C4  UNL A   1      53.975  16.497   7.219  1.00  0.00    +0.000 C 
ATOM     96  H6  UNL A   1      55.019  16.673   7.059  1.00  0.00    +0.000 H 
BRANCH    6    5
ATOM      5  N1  UNL A   1      53.472  15.648   6.151  1.00  0.00    +0.000 N 
ATOM     95  H5  UNL A   1      54.030  15.519   5.350  1.00  0.00    +0.000 H 
BRANCH    5    3
ATOM      3  C3  UNL A   1      52.249  15.017   6.211  1.00  0.00    +0.000 C 
ATOM      4  O1  UNL A   1      51.916  14.527   7.288  1.00  0.00    +0.000 O 
BRANCH    3    2
ATOM      2  C2  UNL A   1      51.363  15.055   4.962  1.00  0.00    +0.000 C 
ATOM     94  H4  UNL A   1      51.283  14.040   4.633  1.00  0.00    +0.000 H 
BRANCH    2    1
ATOM      1  C1  UNL A   1      52.051  15.987   3.949  1.00  0.00    +0.000 C 
ATOM     91  H1  UNL A   1      51.868  15.632   2.957  1.00  0.00    +0.000 H 
ATOM     92  H2  UNL A   1      53.104  15.999   4.135  1.00  0.00    +0.000 H 
ATOM     93  H3  UNL A   1      51.659  16.977   4.051  1.00  0.00    +0.000 H 
ENDBRANCH    2    1
BRANCH    2   78
ATOM    130  H40 UNL A   1      47.772  17.539   6.713  1.00  0.00    +0.000 H 
ATOM     78  C55 UNL A   1      49.900  15.456   5.139  1.00  0.00    +0.000 C 
ATOM     79  C56 UNL A   1      48.944  14.836   4.308  1.00  0.00    +0.000 C 
ATOM     80  C57 UNL A   1      47.601  15.222   4.320  1.00  0.00    +0.000 C 
ATOM     81  C58 UNL A   1      47.161  16.247   5.162  1.00  0.00    +0.000 C 
ATOM     88  C64 UNL A   1      48.082  16.811   6.051  1.00  0.00    +0.000 C 
ATOM     89  C65 UNL A   1      49.419  16.399   6.053  1.00  0.00    +0.000 C 
ATOM     90  F16 UNL A   1      50.210  16.934   6.989  1.00  0.00    +0.000 F 
ATOM    123  H33 UNL A   1      49.244  14.079   3.674  1.00  0.00    +0.000 H 
ATOM    124  H34 UNL A   1      46.927  14.745   3.702  1.00  0.00    +0.000 H 
BRANCH   81   82
ATOM     82  C59 UNL A   1      45.730  16.735   5.109  1.00  0.00    +0.000 C 
ATOM    125  H35 UNL A   1      45.371  16.844   6.111  1.00  0.00    +0.000 H 
ATOM    126  H36 UNL A   1      45.169  16.010   4.556  1.00  0.00    +0.000 H 
BRANCH   82   83
ATOM    129  H39 UNL A   1      44.598  20.414   2.025  1.00  0.00    +0.000 H 
ATOM     83  C60 UNL A   1      45.576  18.055   4.398  1.00  0.00    +0.000 C 
ATOM     84  C61 UNL A   1      46.145  19.276   4.712  1.00  0.00    +0.000 C 
ATOM     85  C62 UNL A   1      45.782  20.303   3.794  1.00  0.00    +0.000 C 
ATOM     86  C63 UNL A   1      44.961  19.831   2.794  1.00  0.00    +0.000 C 
ATOM     87  S1  UNL A   1      44.615  18.167   2.981  1.00  0.00    +0.000 S 
ATOM    127  H37 UNL A   1      46.764  19.427   5.523  1.00  0.00    +0.000 H 
ATOM    128  H38 UNL A   1      46.097  21.283   3.869  1.00  0.00    +0.000 H 
ENDBRANCH   82   83
ENDBRANCH   81   82
ENDBRANCH    2   78
ENDBRANCH    3    2
ENDBRANCH    5    3
ENDBRANCH    6    5
ENDBRANCH    7    6
ENDBRANCH    8    7
ENDBRANCH    9    8
ENDBRANCH   10    9
ENDBRANCH   11   10
ENDBRANCH   12   11
ENDBRANCH   13   12
ENDBRANCH   15   13
ENDBRANCH   19   18
BRANCH   23   24
ATOM     33  C24 UNL A   1      58.455  16.273  11.033  1.00  0.00    +0.000 C 
ATOM     34  F5  UNL A   1      57.643  15.634  11.888  1.00  0.00    +0.000 F 
ATOM     24  C19 UNL A   1      58.492  17.675  11.008  1.00  0.00    +0.000 C 
ATOM     25  C20 UNL A   1      59.361  18.294  10.098  1.00  0.00    +0.000 C 
ATOM     26  F1  UNL A   1      59.425  19.632  10.028  1.00  0.00    +0.000 F 
ATOM     27  C21 UNL A   1      60.144  17.538   9.228  1.00  0.00    +0.000 C 
ATOM     28  F2  UNL A   1      60.933  18.151   8.336  1.00  0.00    +0.000 F 
ATOM     29  C22 UNL A   1      60.094  16.154   9.273  1.00  0.00    +0.000 C 
ATOM     30  F3  UNL A   1      60.850  15.428   8.438  1.00  0.00    +0.000 F 
ATOM     31  C23 UNL A   1      59.257  15.520  10.179  1.00  0.00    +0.000 C 
ATOM     32  F4  UNL A   1      59.216  14.182  10.230  1.00  0.00    +0.000 F 
ENDBRANCH   23   24
BRANCH   40   41
ATOM     41  C30 UNL A   1      58.963  20.367  17.677  1.00  0.00    +0.000 C 
ATOM     42  C31 UNL A   1      59.661  21.551  17.956  1.00  0.00    +0.000 C 
ATOM     43  F6  UNL A   1      59.472  22.641  17.197  1.00  0.00    +0.000 F 
ATOM     44  C32 UNL A   1      60.583  21.608  18.998  1.00  0.00    +0.000 C 
ATOM     45  F7  UNL A   1      61.267  22.739  19.223  1.00  0.00    +0.000 F 
ATOM     46  C33 UNL A   1      60.804  20.494  19.793  1.00  0.00    +0.000 C 
ATOM     47  F8  UNL A   1      61.688  20.553  20.799  1.00  0.00    +0.000 F 
ATOM     48  C34 UNL A   1      60.115  19.317  19.543  1.00  0.00    +0.000 C 
ATOM     49  F9  UNL A   1      60.320  18.242  20.317  1.00  0.00    +0.000 F 
ATOM     50  C35 UNL A   1      59.209  19.249  18.488  1.00  0.00    +0.000 C 
ATOM     51  F10 UNL A   1      58.564  18.096  18.263  1.00  0.00    +0.000 F 
ENDBRANCH   40   41
BRANCH   55   56
ATOM     65  C44 UNL A   1      52.349  24.134  17.096  1.00  0.00    +0.000 C 
ATOM     66  F15 UNL A   1      53.088  24.846  16.233  1.00  0.00    +0.000 F 
ATOM     56  C39 UNL A   1      52.440  22.735  17.111  1.00  0.00    +0.000 C 
ATOM     57  C40 UNL A   1      51.650  22.037  18.033  1.00  0.00    +0.000 C 
ATOM     58  F11 UNL A   1      51.690  20.696  18.069  1.00  0.00    +0.000 F 
ATOM     59  C41 UNL A   1      50.789  22.710  18.898  1.00  0.00    +0.000 C 
ATOM     60  F12 UNL A   1      50.018  22.016  19.745  1.00  0.00    +0.000 F 
ATOM     61  C42 UNL A   1      50.721  24.094  18.872  1.00  0.00    +0.000 C 
ATOM     62  F13 UNL A   1      49.897  24.742  19.706  1.00  0.00    +0.000 F 
ATOM     63  C43 UNL A   1      51.505  24.807  17.976  1.00  0.00    +0.000 C 
ATOM     64  F14 UNL A   1      51.449  26.145  17.956  1.00  0.00    +0.000 F 
ENDBRANCH   55   56
TORSDOF 19
ENDMDL
MODEL 3
REMARK VINA RESULT:     -10.1     38.021     43.540
ROOT
ATOM     19  C15 UNL A   1      13.818  53.850   5.103  1.00  0.00    +0.000 C 
ATOM     20  C16 UNL A   1      13.409  52.408   5.008  1.00  0.00    +0.000 C 
ATOM     21  N3  UNL A   1      13.810  51.487   4.167  1.00  0.00    +0.000 N 
ATOM     22  C17 UNL A   1      13.158  50.321   4.545  1.00  0.00    +0.000 C 
ATOM     23  C18 UNL A   1      13.201  49.102   3.959  1.00  0.00    +0.000 C 
ATOM     35  C25 UNL A   1      13.960  48.795   2.776  1.00  0.00    +0.000 C 
ATOM     36  C26 UNL A   1      14.015  47.606   2.069  1.00  0.00    +0.000 C 
ATOM     37  C27 UNL A   1      14.912  47.770   1.007  1.00  0.00    +0.000 C 
ATOM     38  C28 UNL A   1      15.387  49.070   1.032  1.00  0.00    +0.000 C 
ATOM     39  N4  UNL A   1      14.798  49.687   2.124  1.00  0.00    +0.000 N 
ATOM     40  C29 UNL A   1      16.310  49.706   0.128  1.00  0.00    +0.000 C 
ATOM     52  C36 UNL A   1      16.718  50.995   0.212  1.00  0.00    +0.000 C 
ATOM     53  N5  UNL A   1      16.360  51.964   1.139  1.00  0.00    +0.000 N 
ATOM     54  C37 UNL A   1      17.024  53.043   0.807  1.00  0.00    +0.000 C 
ATOM     55  C38 UNL A   1      17.006  54.403   1.448  1.00  0.00    +0.000 C 
ATOM     67  C45 UNL A   1      16.200  54.626   2.503  1.00  0.00    +0.000 C 
ATOM     68  C46 UNL A   1      16.073  55.891   3.220  1.00  0.00    +0.000 C 
ATOM     69  C47 UNL A   1      15.211  55.733   4.238  1.00  0.00    +0.000 C 
ATOM     70  C48 UNL A   1      14.701  54.361   4.224  1.00  0.00    +0.000 C 
ATOM     71  N6  UNL A   1      15.337  53.780   3.155  1.00  0.00    +0.000 N 
ATOM     72  C49 UNL A   1      17.903  52.873  -0.360  1.00  0.00    +0.000 C 
ATOM     73  C50 UNL A   1      17.652  51.617  -0.704  1.00  0.00    +0.000 C 
ATOM     74  C51 UNL A   1      12.366  50.640   5.715  1.00  0.00    +0.000 C 
ATOM     75  C52 UNL A   1      12.439  51.931   6.005  1.00  0.00    +0.000 C 
ATOM    111  H21 UNL A   1      13.486  46.748   2.287  1.00  0.00    +0.000 H 
ATOM    112  H22 UNL A   1      15.174  47.044   0.322  1.00  0.00    +0.000 H 
ATOM    113  H23 UNL A   1      14.951  50.620   2.396  1.00  0.00    +0.000 H 
ATOM    114  H24 UNL A   1      16.565  56.766   2.984  1.00  0.00    +0.000 H 
ATOM    115  H25 UNL A   1      14.950  56.462   4.920  1.00  0.00    +0.000 H 
ATOM    116  H26 UNL A   1      15.188  52.846   2.883  1.00  0.00    +0.000 H 
ATOM    117  H27 UNL A   1      18.545  53.552  -0.796  1.00  0.00    +0.000 H 
ATOM    118  H28 UNL A   1      18.069  51.144  -1.520  1.00  0.00    +0.000 H 
ATOM    119  H29 UNL A   1      11.817  49.951   6.253  1.00  0.00    +0.000 H 
ATOM    120  H30 UNL A   1      11.944  52.462   6.739  1.00  0.00    +0.000 H 
ENDROOT
BRANCH   19   18
ATOM     76  C53 UNL A   1      12.071  55.347   6.071  1.00  0.00    +0.000 C 
ATOM    109  H19 UNL A   1      14.054  55.729   9.322  1.00  0.00    +0.000 H 
ATOM     77  C54 UNL A   1      11.577  56.149   7.097  1.00  0.00    +0.000 C 
ATOM     15  C11 UNL A   1      12.273  56.240   8.306  1.00  0.00    +0.000 C 
ATOM     16  C12 UNL A   1      13.520  55.624   8.445  1.00  0.00    +0.000 C 
ATOM     17  C13 UNL A   1      14.042  54.868   7.394  1.00  0.00    +0.000 C 
ATOM    110  H20 UNL A   1      14.972  54.431   7.488  1.00  0.00    +0.000 H 
ATOM     18  C14 UNL A   1      13.308  54.700   6.209  1.00  0.00    +0.000 C 
ATOM    121  H31 UNL A   1      11.524  55.229   5.203  1.00  0.00    +0.000 H 
ATOM    122  H32 UNL A   1      10.698  56.675   6.966  1.00  0.00    +0.000 H 
BRANCH   15   13
ATOM     13  C10 UNL A   1      11.723  57.000   9.450  1.00  0.00    +0.000 C 
ATOM     14  O2  UNL A   1      11.658  58.225   9.389  1.00  0.00    +0.000 O 
BRANCH   13   12
ATOM    108  H18 UNL A   1      11.468  56.813  11.428  1.00  0.00    +0.000 H 
ATOM     12  N2  UNL A   1      11.305  56.341  10.578  1.00  0.00    +0.000 N 
BRANCH   12   11
ATOM    106  H16 UNL A   1       9.957  55.085  11.507  1.00  0.00    +0.000 H 
ATOM     11  C9  UNL A   1      10.659  55.044  10.700  1.00  0.00    +0.000 C 
ATOM    107  H17 UNL A   1      10.174  54.833   9.769  1.00  0.00    +0.000 H 
BRANCH   11   10
ATOM    105  H15 UNL A   1      12.190  53.768  10.060  1.00  0.00    +0.000 H 
ATOM     10  C8  UNL A   1      11.654  53.920  10.974  1.00  0.00    +0.000 C 
ATOM    104  H14 UNL A   1      11.103  53.060  11.292  1.00  0.00    +0.000 H 
BRANCH   10    9
ATOM      9  C7  UNL A   1      12.705  54.232  12.040  1.00  0.00    +0.000 C 
ATOM    102  H12 UNL A   1      12.670  55.283  12.242  1.00  0.00    +0.000 H 
ATOM    103  H13 UNL A   1      12.460  53.626  12.887  1.00  0.00    +0.000 H 
BRANCH    9    8
ATOM    100  H10 UNL A   1      14.401  54.418  10.778  1.00  0.00    +0.000 H 
ATOM    101  H11 UNL A   1      14.744  54.121  12.512  1.00  0.00    +0.000 H 
ATOM      8  C6  UNL A   1      14.144  53.871  11.662  1.00  0.00    +0.000 C 
BRANCH    8    7
ATOM     98  H8  UNL A   1      13.659  51.816  11.917  1.00  0.00    +0.000 H 
ATOM     99  H9  UNL A   1      14.347  52.258  10.327  1.00  0.00    +0.000 H 
ATOM      7  C5  UNL A   1      14.397  52.383  11.389  1.00  0.00    +0.000 C 
BRANCH    7    6
ATOM     97  H7  UNL A   1      15.765  51.710  12.874  1.00  0.00    +0.000 H 
ATOM      6  C4  UNL A   1      15.783  51.877  11.818  1.00  0.00    +0.000 C 
ATOM     96  H6  UNL A   1      16.516  52.612  11.559  1.00  0.00    +0.000 H 
BRANCH    6    5
ATOM      5  N1  UNL A   1      16.121  50.623  11.165  1.00  0.00    +0.000 N 
ATOM     95  H5  UNL A   1      15.864  49.780  11.604  1.00  0.00    +0.000 H 
BRANCH    5    3
ATOM      3  C3  UNL A   1      16.786  50.562   9.961  1.00  0.00    +0.000 C 
ATOM      4  O1  UNL A   1      17.997  50.777   9.971  1.00  0.00    +0.000 O 
BRANCH    3    2
ATOM      2  C2  UNL A   1      15.987  50.145   8.723  1.00  0.00    +0.000 C 
ATOM     94  H4  UNL A   1      16.671  49.596   8.109  1.00  0.00    +0.000 H 
BRANCH    2    1
ATOM      1  C1  UNL A   1      15.459  51.434   8.070  1.00  0.00    +0.000 C 
ATOM     91  H1  UNL A   1      16.254  51.917   7.541  1.00  0.00    +0.000 H 
ATOM     92  H2  UNL A   1      15.086  52.089   8.829  1.00  0.00    +0.000 H 
ATOM     93  H3  UNL A   1      14.672  51.192   7.388  1.00  0.00    +0.000 H 
ENDBRANCH    2    1
BRANCH    2   78
ATOM    130  H40 UNL A   1      14.064  45.942   9.599  1.00  0.00    +0.000 H 
ATOM     78  C55 UNL A   1      14.848  49.145   8.914  1.00  0.00    +0.000 C 
ATOM     79  C56 UNL A   1      13.529  49.642   8.904  1.00  0.00    +0.000 C 
ATOM     80  C57 UNL A   1      12.433  48.821   9.185  1.00  0.00    +0.000 C 
ATOM     81  C58 UNL A   1      12.615  47.470   9.490  1.00  0.00    +0.000 C 
ATOM     88  C64 UNL A   1      13.909  46.946   9.420  1.00  0.00    +0.000 C 
ATOM     89  C65 UNL A   1      14.998  47.768   9.110  1.00  0.00    +0.000 C 
ATOM     90  F16 UNL A   1      16.187  47.168   8.987  1.00  0.00    +0.000 F 
ATOM    123  H33 UNL A   1      13.368  50.638   8.686  1.00  0.00    +0.000 H 
ATOM    124  H34 UNL A   1      11.480  49.217   9.166  1.00  0.00    +0.000 H 
BRANCH   81   82
ATOM     82  C59 UNL A   1      11.442  46.601   9.890  1.00  0.00    +0.000 C 
ATOM    125  H35 UNL A   1      11.655  45.592   9.604  1.00  0.00    +0.000 H 
ATOM    126  H36 UNL A   1      10.577  46.987   9.392  1.00  0.00    +0.000 H 
BRANCH   82   83
ATOM    129  H39 UNL A   1      11.328  45.857  14.765  1.00  0.00    +0.000 H 
ATOM     83  C60 UNL A   1      11.156  46.630  11.370  1.00  0.00    +0.000 C 
ATOM     84  C61 UNL A   1      10.205  47.368  12.051  1.00  0.00    +0.000 C 
ATOM     85  C62 UNL A   1      10.218  47.119  13.453  1.00  0.00    +0.000 C 
ATOM     86  C63 UNL A   1      11.167  46.185  13.800  1.00  0.00    +0.000 C 
ATOM     87  S1  UNL A   1      12.049  45.633  12.443  1.00  0.00    +0.000 S 
ATOM    127  H37 UNL A   1       9.556  48.026  11.592  1.00  0.00    +0.000 H 
ATOM    128  H38 UNL A   1       9.590  47.584  14.128  1.00  0.00    +0.000 H 
ENDBRANCH   82   83
ENDBRANCH   81   82
ENDBRANCH    2   78
ENDBRANCH    3    2
ENDBRANCH    5    3
ENDBRANCH    6    5
ENDBRANCH    7    6
ENDBRANCH    8    7
ENDBRANCH    9    8
ENDBRANCH   10    9
ENDBRANCH   11   10
ENDBRANCH   12   11
ENDBRANCH   13   12
ENDBRANCH   15   13
ENDBRANCH   19   18
BRANCH   23   24
ATOM     33  C24 UNL A   1      12.966  47.173   5.565  1.00  0.00    +0.000 C 
ATOM     34  F5  UNL A   1      14.232  47.369   5.964  1.00  0.00    +0.000 F 
ATOM     24  C19 UNL A   1      12.396  48.004   4.589  1.00  0.00    +0.000 C 
ATOM     25  C20 UNL A   1      11.071  47.752   4.204  1.00  0.00    +0.000 C 
ATOM     26  F1  UNL A   1      10.478  48.527   3.284  1.00  0.00    +0.000 F 
ATOM     27  C21 UNL A   1      10.337  46.725   4.792  1.00  0.00    +0.000 C 
ATOM     28  F2  UNL A   1       9.059  46.532   4.441  1.00  0.00    +0.000 F 
ATOM     29  C22 UNL A   1      10.923  45.913   5.751  1.00  0.00    +0.000 C 
ATOM     30  F3  UNL A   1      10.217  44.922   6.313  1.00  0.00    +0.000 F 
ATOM     31  C23 UNL A   1      12.238  46.130   6.133  1.00  0.00    +0.000 C 
ATOM     32  F4  UNL A   1      12.808  45.339   7.051  1.00  0.00    +0.000 F 
ENDBRANCH   23   24
BRANCH   40   41
ATOM     41  C30 UNL A   1      16.852  48.889  -1.006  1.00  0.00    +0.000 C 
ATOM     42  C31 UNL A   1      16.157  48.765  -2.217  1.00  0.00    +0.000 C 
ATOM     43  F6  UNL A   1      14.955  49.342  -2.367  1.00  0.00    +0.000 F 
ATOM     44  C32 UNL A   1      16.681  48.019  -3.269  1.00  0.00    +0.000 C 
ATOM     45  F7  UNL A   1      15.983  47.882  -4.405  1.00  0.00    +0.000 F 
ATOM     46  C33 UNL A   1      17.918  47.406  -3.138  1.00  0.00    +0.000 C 
ATOM     47  F8  UNL A   1      18.424  46.692  -4.153  1.00  0.00    +0.000 F 
ATOM     48  C34 UNL A   1      18.628  47.526  -1.953  1.00  0.00    +0.000 C 
ATOM     49  F9  UNL A   1      19.829  46.941  -1.829  1.00  0.00    +0.000 F 
ATOM     50  C35 UNL A   1      18.097  48.252  -0.891  1.00  0.00    +0.000 C 
ATOM     51  F10 UNL A   1      18.801  48.343   0.246  1.00  0.00    +0.000 F 
ENDBRANCH   40   41
BRANCH   55   56
ATOM     65  C44 UNL A   1      17.402  56.310  -0.147  1.00  0.00    +0.000 C 
ATOM     66  F15 UNL A   1      16.201  56.091  -0.702  1.00  0.00    +0.000 F 
ATOM     56  C39 UNL A   1      17.843  55.507   0.913  1.00  0.00    +0.000 C 
ATOM     57  C40 UNL A   1      19.106  55.774   1.457  1.00  0.00    +0.000 C 
ATOM     58  F11 UNL A   1      19.559  55.044   2.487  1.00  0.00    +0.000 F 
ATOM     59  C41 UNL A   1      19.894  56.814   0.968  1.00  0.00    +0.000 C 
ATOM     60  F12 UNL A   1      21.083  57.071   1.529  1.00  0.00    +0.000 F 
ATOM     61  C42 UNL A   1      19.442  57.591  -0.088  1.00  0.00    +0.000 C 
ATOM     62  F13 UNL A   1      20.201  58.589  -0.561  1.00  0.00    +0.000 F 
ATOM     63  C43 UNL A   1      18.199  57.336  -0.650  1.00  0.00    +0.000 C 
ATOM     64  F14 UNL A   1      17.766  58.078  -1.678  1.00  0.00    +0.000 F 
ENDBRANCH   55   56
TORSDOF 19
ENDMDL
MODEL 4
REMARK VINA RESULT:     -10.0     39.027     44.382
ROOT
ATOM     19  C15 UNL A   1      13.254  50.047   3.446  1.00  0.00    +0.000 C 
ATOM     20  C16 UNL A   1      14.139  49.610   2.314  1.00  0.00    +0.000 C 
ATOM     21  N3  UNL A   1      15.006  50.307   1.623  1.00  0.00    +0.000 N 
ATOM     22  C17 UNL A   1      15.585  49.413   0.732  1.00  0.00    +0.000 C 
ATOM     23  C18 UNL A   1      16.505  49.658  -0.231  1.00  0.00    +0.000 C 
ATOM     35  C25 UNL A   1      17.058  50.955  -0.516  1.00  0.00    +0.000 C 
ATOM     36  C26 UNL A   1      17.946  51.315  -1.515  1.00  0.00    +0.000 C 
ATOM     37  C27 UNL A   1      18.224  52.680  -1.382  1.00  0.00    +0.000 C 
ATOM     38  C28 UNL A   1      17.482  53.177  -0.324  1.00  0.00    +0.000 C 
ATOM     39  N4  UNL A   1      16.774  52.108   0.200  1.00  0.00    +0.000 N 
ATOM     40  C29 UNL A   1      17.421  54.526   0.174  1.00  0.00    +0.000 C 
ATOM     52  C36 UNL A   1      16.654  54.939   1.213  1.00  0.00    +0.000 C 
ATOM     53  N5  UNL A   1      15.786  54.199   2.002  1.00  0.00    +0.000 N 
ATOM     54  C37 UNL A   1      15.288  55.039   2.876  1.00  0.00    +0.000 C 
ATOM     55  C38 UNL A   1      14.279  54.792   3.962  1.00  0.00    +0.000 C 
ATOM     67  C45 UNL A   1      13.749  53.562   4.104  1.00  0.00    +0.000 C 
ATOM     68  C46 UNL A   1      12.759  53.177   5.105  1.00  0.00    +0.000 C 
ATOM     69  C47 UNL A   1      12.492  51.867   4.975  1.00  0.00    +0.000 C 
ATOM     70  C48 UNL A   1      13.271  51.328   3.859  1.00  0.00    +0.000 C 
ATOM     71  N6  UNL A   1      13.981  52.408   3.397  1.00  0.00    +0.000 N 
ATOM     72  C49 UNL A   1      15.807  56.410   2.753  1.00  0.00    +0.000 C 
ATOM     73  C50 UNL A   1      16.609  56.301   1.704  1.00  0.00    +0.000 C 
ATOM     74  C51 UNL A   1      15.001  48.115   0.996  1.00  0.00    +0.000 C 
ATOM     75  C52 UNL A   1      14.058  48.193   1.923  1.00  0.00    +0.000 C 
ATOM    111  H21 UNL A   1      18.336  50.685  -2.233  1.00  0.00    +0.000 H 
ATOM    112  H22 UNL A   1      18.872  53.224  -1.973  1.00  0.00    +0.000 H 
ATOM    113  H23 UNL A   1      16.159  52.159   0.968  1.00  0.00    +0.000 H 
ATOM    114  H24 UNL A   1      12.332  53.808   5.800  1.00  0.00    +0.000 H 
ATOM    115  H25 UNL A   1      11.841  51.327   5.567  1.00  0.00    +0.000 H 
ATOM    116  H26 UNL A   1      14.599  52.359   2.632  1.00  0.00    +0.000 H 
ATOM    117  H27 UNL A   1      15.600  57.238   3.333  1.00  0.00    +0.000 H 
ATOM    118  H28 UNL A   1      17.135  57.087   1.289  1.00  0.00    +0.000 H 
ATOM    119  H29 UNL A   1      15.283  47.242   0.523  1.00  0.00    +0.000 H 
ATOM    120  H30 UNL A   1      13.430  47.455   2.278  1.00  0.00    +0.000 H 
ENDROOT
BRANCH   19   18
ATOM     76  C53 UNL A   1      11.086  48.848   3.749  1.00  0.00    +0.000 C 
ATOM    109  H19 UNL A   1      12.507  46.799   6.652  1.00  0.00    +0.000 H 
ATOM     77  C54 UNL A   1      10.279  47.923   4.408  1.00  0.00    +0.000 C 
ATOM     15  C11 UNL A   1      10.817  47.133   5.429  1.00  0.00    +0.000 C 
ATOM     16  C12 UNL A   1      12.126  47.352   5.868  1.00  0.00    +0.000 C 
ATOM     17  C13 UNL A   1      12.916  48.320   5.245  1.00  0.00    +0.000 C 
ATOM    110  H20 UNL A   1      13.874  48.496   5.582  1.00  0.00    +0.000 H 
ATOM     18  C14 UNL A   1      12.411  49.056   4.161  1.00  0.00    +0.000 C 
ATOM    121  H31 UNL A   1      10.706  49.384   2.952  1.00  0.00    +0.000 H 
ATOM    122  H32 UNL A   1       9.287  47.820   4.144  1.00  0.00    +0.000 H 
BRANCH   15   13
ATOM     13  C10 UNL A   1      10.015  46.072   6.077  1.00  0.00    +0.000 C 
ATOM     14  O2  UNL A   1       8.964  45.705   5.561  1.00  0.00    +0.000 O 
BRANCH   13   12
ATOM    108  H18 UNL A   1      10.975  44.695   7.170  1.00  0.00    +0.000 H 
ATOM     12  N2  UNL A   1      10.437  45.515   7.258  1.00  0.00    +0.000 N 
BRANCH   12   11
ATOM    106  H16 UNL A   1       9.694  46.904   8.592  1.00  0.00    +0.000 H 
ATOM     11  C9  UNL A   1      10.202  45.962   8.622  1.00  0.00    +0.000 C 
ATOM    107  H17 UNL A   1       9.614  45.215   9.113  1.00  0.00    +0.000 H 
BRANCH   11   10
ATOM    105  H15 UNL A   1      12.271  45.698   8.811  1.00  0.00    +0.000 H 
ATOM     10  C8  UNL A   1      11.497  46.129   9.412  1.00  0.00    +0.000 C 
ATOM    104  H14 UNL A   1      11.374  45.645  10.358  1.00  0.00    +0.000 H 
BRANCH   10    9
ATOM      9  C7  UNL A   1      11.915  47.578   9.670  1.00  0.00    +0.000 C 
ATOM    102  H12 UNL A   1      11.547  48.177   8.862  1.00  0.00    +0.000 H 
ATOM    103  H13 UNL A   1      11.501  47.842  10.620  1.00  0.00    +0.000 H 
BRANCH    9    8
ATOM    100  H10 UNL A   1      13.639  48.784   9.393  1.00  0.00    +0.000 H 
ATOM    101  H11 UNL A   1      13.661  47.701  10.821  1.00  0.00    +0.000 H 
ATOM      8  C6  UNL A   1      13.424  47.811   9.783  1.00  0.00    +0.000 C 
BRANCH    8    7
ATOM     98  H8  UNL A   1      14.903  46.283   9.760  1.00  0.00    +0.000 H 
ATOM     99  H9  UNL A   1      13.634  46.151   8.509  1.00  0.00    +0.000 H 
ATOM      7  C5  UNL A   1      14.302  46.797   9.039  1.00  0.00    +0.000 C 
BRANCH    7    6
ATOM     97  H7  UNL A   1      14.651  48.002   7.320  1.00  0.00    +0.000 H 
ATOM      6  C4  UNL A   1      15.239  47.408   7.987  1.00  0.00    +0.000 C 
ATOM     96  H6  UNL A   1      15.733  46.617   7.460  1.00  0.00    +0.000 H 
BRANCH    6    5
ATOM      5  N1  UNL A   1      16.242  48.266   8.596  1.00  0.00    +0.000 N 
ATOM     95  H5  UNL A   1      16.767  47.913   9.351  1.00  0.00    +0.000 H 
BRANCH    5    3
ATOM      3  C3  UNL A   1      16.489  49.550   8.165  1.00  0.00    +0.000 C 
ATOM      4  O1  UNL A   1      17.566  50.056   8.476  1.00  0.00    +0.000 O 
BRANCH    3    2
ATOM      2  C2  UNL A   1      15.448  50.213   7.258  1.00  0.00    +0.000 C 
ATOM     94  H4  UNL A   1      14.700  49.468   7.085  1.00  0.00    +0.000 H 
BRANCH    2    1
ATOM      1  C1  UNL A   1      16.183  50.668   5.985  1.00  0.00    +0.000 C 
ATOM     91  H1  UNL A   1      15.722  51.555   5.605  1.00  0.00    +0.000 H 
ATOM     92  H2  UNL A   1      16.129  49.895   5.248  1.00  0.00    +0.000 H 
ATOM     93  H3  UNL A   1      17.207  50.869   6.216  1.00  0.00    +0.000 H 
ENDBRANCH    2    1
BRANCH    2   78
ATOM    130  H40 UNL A   1      11.686  52.257   9.206  1.00  0.00    +0.000 H 
ATOM     78  C55 UNL A   1      14.631  51.366   7.836  1.00  0.00    +0.000 C 
ATOM     79  C56 UNL A   1      15.272  52.612   7.993  1.00  0.00    +0.000 C 
ATOM     80  C57 UNL A   1      14.639  53.690   8.618  1.00  0.00    +0.000 C 
ATOM     81  C58 UNL A   1      13.339  53.563   9.113  1.00  0.00    +0.000 C 
ATOM     88  C64 UNL A   1      12.662  52.360   8.888  1.00  0.00    +0.000 C 
ATOM     89  C65 UNL A   1      13.293  51.295   8.236  1.00  0.00    +0.000 C 
ATOM     90  F16 UNL A   1      12.545  50.213   7.992  1.00  0.00    +0.000 F 
ATOM    123  H33 UNL A   1      16.235  52.731   7.640  1.00  0.00    +0.000 H 
ATOM    124  H34 UNL A   1      15.136  54.589   8.714  1.00  0.00    +0.000 H 
BRANCH   81   82
ATOM     82  C59 UNL A   1      12.685  54.694   9.877  1.00  0.00    +0.000 C 
ATOM    125  H35 UNL A   1      11.654  54.744   9.593  1.00  0.00    +0.000 H 
ATOM    126  H36 UNL A   1      13.215  55.591   9.629  1.00  0.00    +0.000 H 
BRANCH   82   83
ATOM    129  H39 UNL A   1      11.835  54.542  14.733  1.00  0.00    +0.000 H 
ATOM     83  C60 UNL A   1      12.763  54.527  11.372  1.00  0.00    +0.000 C 
ATOM     84  C61 UNL A   1      13.849  54.153  12.144  1.00  0.00    +0.000 C 
ATOM     85  C62 UNL A   1      13.548  54.120  13.536  1.00  0.00    +0.000 C 
ATOM     86  C63 UNL A   1      12.246  54.489  13.788  1.00  0.00    +0.000 C 
ATOM     87  S1  UNL A   1      11.391  54.848  12.351  1.00  0.00    +0.000 S 
ATOM    127  H37 UNL A   1      14.775  53.922  11.754  1.00  0.00    +0.000 H 
ATOM    128  H38 UNL A   1      14.225  53.853  14.267  1.00  0.00    +0.000 H 
ENDBRANCH   82   83
ENDBRANCH   81   82
ENDBRANCH    2   78
ENDBRANCH    3    2
ENDBRANCH    5    3
ENDBRANCH    6    5
ENDBRANCH    7    6
ENDBRANCH    8    7
ENDBRANCH    9    8
ENDBRANCH   10    9
ENDBRANCH   11   10
ENDBRANCH   12   11
ENDBRANCH   13   12
ENDBRANCH   15   13
ENDBRANCH   19   18
BRANCH   23   24
ATOM     33  C24 UNL A   1      18.121  47.780  -0.692  1.00  0.00    +0.000 C 
ATOM     34  F5  UNL A   1      18.806  48.116   0.411  1.00  0.00    +0.000 F 
ATOM     24  C19 UNL A   1      16.969  48.493  -1.054  1.00  0.00    +0.000 C 
ATOM     25  C20 UNL A   1      16.293  48.103  -2.219  1.00  0.00    +0.000 C 
ATOM     26  F1  UNL A   1      15.179  48.746  -2.601  1.00  0.00    +0.000 F 
ATOM     27  C21 UNL A   1      16.739  47.024  -2.979  1.00  0.00    +0.000 C 
ATOM     28  F2  UNL A   1      16.051  46.641  -4.063  1.00  0.00    +0.000 F 
ATOM     29  C22 UNL A   1      17.883  46.336  -2.605  1.00  0.00    +0.000 C 
ATOM     30  F3  UNL A   1      18.313  45.300  -3.339  1.00  0.00    +0.000 F 
ATOM     31  C23 UNL A   1      18.579  46.717  -1.467  1.00  0.00    +0.000 C 
ATOM     32  F4  UNL A   1      19.691  46.060  -1.112  1.00  0.00    +0.000 F 
ENDBRANCH   23   24
BRANCH   40   41
ATOM     41  C30 UNL A   1      18.254  55.564  -0.516  1.00  0.00    +0.000 C 
ATOM     42  C31 UNL A   1      19.500  55.959  -0.009  1.00  0.00    +0.000 C 
ATOM     43  F6  UNL A   1      19.951  55.447   1.146  1.00  0.00    +0.000 F 
ATOM     44  C32 UNL A   1      20.272  56.910  -0.671  1.00  0.00    +0.000 C 
ATOM     45  F7  UNL A   1      21.442  57.302  -0.148  1.00  0.00    +0.000 F 
ATOM     46  C33 UNL A   1      19.826  57.461  -1.863  1.00  0.00    +0.000 C 
ATOM     47  F8  UNL A   1      20.573  58.372  -2.502  1.00  0.00    +0.000 F 
ATOM     48  C34 UNL A   1      18.603  57.074  -2.389  1.00  0.00    +0.000 C 
ATOM     49  F9  UNL A   1      18.175  57.600  -3.547  1.00  0.00    +0.000 F 
ATOM     50  C35 UNL A   1      17.817  56.142  -1.719  1.00  0.00    +0.000 C 
ATOM     51  F10 UNL A   1      16.635  55.793  -2.245  1.00  0.00    +0.000 F 
ENDBRANCH   40   41
BRANCH   55   56
ATOM     65  C44 UNL A   1      12.659  56.605   4.615  1.00  0.00    +0.000 C 
ATOM     66  F15 UNL A   1      11.896  56.300   3.555  1.00  0.00    +0.000 F 
ATOM     56  C39 UNL A   1      13.841  55.891   4.858  1.00  0.00    +0.000 C 
ATOM     57  C40 UNL A   1      14.605  56.250   5.976  1.00  0.00    +0.000 C 
ATOM     58  F11 UNL A   1      15.732  55.580   6.259  1.00  0.00    +0.000 F 
ATOM     59  C41 UNL A   1      14.196  57.274   6.828  1.00  0.00    +0.000 C 
ATOM     60  F12 UNL A   1      14.927  57.574   7.910  1.00  0.00    +0.000 F 
ATOM     61  C42 UNL A   1      13.028  57.974   6.563  1.00  0.00    +0.000 C 
ATOM     62  F13 UNL A   1      12.637  58.961   7.380  1.00  0.00    +0.000 F 
ATOM     63  C43 UNL A   1      12.263  57.643   5.454  1.00  0.00    +0.000 C 
ATOM     64  F14 UNL A   1      11.140  58.325   5.190  1.00  0.00    +0.000 F 
ENDBRANCH   55   56
TORSDOF 19
ENDMDL
MODEL 5
REMARK VINA RESULT:     -10.0     24.112     34.516
ROOT
ATOM     19  C15 UNL A   1      22.495   8.663   7.584  1.00  0.00    +0.000 C 
ATOM     20  C16 UNL A   1      23.592   8.059   6.754  1.00  0.00    +0.000 C 
ATOM     21  N3  UNL A   1      23.959   6.806   6.653  1.00  0.00    +0.000 N 
ATOM     22  C17 UNL A   1      24.987   6.788   5.719  1.00  0.00    +0.000 C 
ATOM     23  C18 UNL A   1      25.732   5.736   5.304  1.00  0.00    +0.000 C 
ATOM     35  C25 UNL A   1      25.584   4.391   5.792  1.00  0.00    +0.000 C 
ATOM     36  C26 UNL A   1      26.335   3.272   5.481  1.00  0.00    +0.000 C 
ATOM     37  C27 UNL A   1      25.802   2.180   6.176  1.00  0.00    +0.000 C 
ATOM     38  C28 UNL A   1      24.743   2.627   6.947  1.00  0.00    +0.000 C 
ATOM     39  N4  UNL A   1      24.617   3.985   6.700  1.00  0.00    +0.000 N 
ATOM     40  C29 UNL A   1      23.904   1.875   7.844  1.00  0.00    +0.000 C 
ATOM     52  C36 UNL A   1      22.890   2.392   8.579  1.00  0.00    +0.000 C 
ATOM     53  N5  UNL A   1      22.440   3.703   8.643  1.00  0.00    +0.000 N 
ATOM     54  C37 UNL A   1      21.434   3.698   9.482  1.00  0.00    +0.000 C 
ATOM     55  C38 UNL A   1      20.583   4.846   9.950  1.00  0.00    +0.000 C 
ATOM     67  C45 UNL A   1      20.847   6.089   9.504  1.00  0.00    +0.000 C 
ATOM     68  C46 UNL A   1      20.113   7.295   9.873  1.00  0.00    +0.000 C 
ATOM     69  C47 UNL A   1      20.627   8.342   9.207  1.00  0.00    +0.000 C 
ATOM     70  C48 UNL A   1      21.748   7.883   8.386  1.00  0.00    +0.000 C 
ATOM     71  N6  UNL A   1      21.810   6.534   8.632  1.00  0.00    +0.000 N 
ATOM     72  C49 UNL A   1      21.115   2.371  10.029  1.00  0.00    +0.000 C 
ATOM     73  C50 UNL A   1      22.053   1.618   9.473  1.00  0.00    +0.000 C 
ATOM     74  C51 UNL A   1      25.159   8.148   5.253  1.00  0.00    +0.000 C 
ATOM     75  C52 UNL A   1      24.363   8.982   5.906  1.00  0.00    +0.000 C 
ATOM    111  H21 UNL A   1      27.147   3.246   4.846  1.00  0.00    +0.000 H 
ATOM    112  H22 UNL A   1      26.141   1.207   6.123  1.00  0.00    +0.000 H 
ATOM    113  H23 UNL A   1      23.943   4.574   7.109  1.00  0.00    +0.000 H 
ATOM    114  H24 UNL A   1      19.326   7.338  10.539  1.00  0.00    +0.000 H 
ATOM    115  H25 UNL A   1      20.285   9.314   9.265  1.00  0.00    +0.000 H 
ATOM    116  H26 UNL A   1      22.482   5.942   8.222  1.00  0.00    +0.000 H 
ATOM    117  H27 UNL A   1      20.359   2.098  10.677  1.00  0.00    +0.000 H 
ATOM    118  H28 UNL A   1      22.172   0.609   9.654  1.00  0.00    +0.000 H 
ATOM    119  H29 UNL A   1      25.816   8.431   4.510  1.00  0.00    +0.000 H 
ATOM    120  H30 UNL A   1      24.300  10.010   5.839  1.00  0.00    +0.000 H 
ENDROOT
BRANCH   19   18
ATOM     76  C53 UNL A   1      21.188  10.536   6.577  1.00  0.00    +0.000 C 
ATOM    109  H19 UNL A   1      23.016  13.110   8.741  1.00  0.00    +0.000 H 
ATOM     77  C54 UNL A   1      20.882  11.890   6.456  1.00  0.00    +0.000 C 
ATOM     15  C11 UNL A   1      21.509  12.823   7.289  1.00  0.00    +0.000 C 
ATOM     16  C12 UNL A   1      22.523  12.414   8.160  1.00  0.00    +0.000 C 
ATOM     17  C13 UNL A   1      22.869  11.064   8.239  1.00  0.00    +0.000 C 
ATOM    110  H20 UNL A   1      23.632  10.765   8.866  1.00  0.00    +0.000 H 
ATOM     18  C14 UNL A   1      22.184  10.110   7.469  1.00  0.00    +0.000 C 
ATOM    121  H31 UNL A   1      20.678   9.842   6.008  1.00  0.00    +0.000 H 
ATOM    122  H32 UNL A   1      20.196  12.205   5.753  1.00  0.00    +0.000 H 
BRANCH   15   13
ATOM     13  C10 UNL A   1      21.132  14.253   7.255  1.00  0.00    +0.000 C 
ATOM     14  O2  UNL A   1      20.557  14.705   6.268  1.00  0.00    +0.000 O 
BRANCH   13   12
ATOM    108  H18 UNL A   1      21.461  14.632   9.193  1.00  0.00    +0.000 H 
ATOM     12  N2  UNL A   1      21.439  15.072   8.312  1.00  0.00    +0.000 N 
BRANCH   12   11
ATOM    106  H16 UNL A   1      21.997  16.795   7.324  1.00  0.00    +0.000 H 
ATOM     11  C9  UNL A   1      21.736  16.495   8.318  1.00  0.00    +0.000 C 
ATOM    107  H17 UNL A   1      20.864  17.008   8.666  1.00  0.00    +0.000 H 
BRANCH   11   10
ATOM    105  H15 UNL A   1      22.572  17.705   9.808  1.00  0.00    +0.000 H 
ATOM     10  C8  UNL A   1      22.889  16.846   9.254  1.00  0.00    +0.000 C 
ATOM    104  H14 UNL A   1      23.759  17.022   8.658  1.00  0.00    +0.000 H 
BRANCH   10    9
ATOM      9  C7  UNL A   1      23.231  15.772  10.289  1.00  0.00    +0.000 C 
ATOM    102  H12 UNL A   1      22.508  14.987  10.202  1.00  0.00    +0.000 H 
ATOM    103  H13 UNL A   1      24.231  15.459  10.074  1.00  0.00    +0.000 H 
BRANCH    9    8
ATOM    100  H10 UNL A   1      22.620  15.587  12.313  1.00  0.00    +0.000 H 
ATOM    101  H11 UNL A   1      24.264  16.248  12.049  1.00  0.00    +0.000 H 
ATOM      8  C6  UNL A   1      23.239  16.249  11.744  1.00  0.00    +0.000 C 
BRANCH    8    7
ATOM     98  H8  UNL A   1      23.301  18.337  11.343  1.00  0.00    +0.000 H 
ATOM     99  H9  UNL A   1      21.690  17.672  11.735  1.00  0.00    +0.000 H 
ATOM      7  C5  UNL A   1      22.734  17.681  11.969  1.00  0.00    +0.000 C 
BRANCH    7    6
ATOM     97  H7  UNL A   1      23.173  17.369  14.028  1.00  0.00    +0.000 H 
ATOM      6  C4  UNL A   1      22.849  18.184  13.415  1.00  0.00    +0.000 C 
ATOM     96  H6  UNL A   1      21.893  18.546  13.734  1.00  0.00    +0.000 H 
BRANCH    6    5
ATOM      5  N1  UNL A   1      23.823  19.257  13.533  1.00  0.00    +0.000 N 
ATOM     95  H5  UNL A   1      23.497  20.170  13.708  1.00  0.00    +0.000 H 
BRANCH    5    3
ATOM      3  C3  UNL A   1      25.179  19.053  13.410  1.00  0.00    +0.000 C 
ATOM      4  O1  UNL A   1      25.662  18.084  13.993  1.00  0.00    +0.000 O 
BRANCH    3    2
ATOM      2  C2  UNL A   1      25.962  19.991  12.486  1.00  0.00    +0.000 C 
ATOM     94  H4  UNL A   1      26.867  20.223  13.009  1.00  0.00    +0.000 H 
BRANCH    2    1
ATOM      1  C1  UNL A   1      25.066  21.211  12.217  1.00  0.00    +0.000 C 
ATOM     91  H1  UNL A   1      25.664  22.098  12.212  1.00  0.00    +0.000 H 
ATOM     92  H2  UNL A   1      24.325  21.285  12.985  1.00  0.00    +0.000 H 
ATOM     93  H3  UNL A   1      24.586  21.099  11.268  1.00  0.00    +0.000 H 
ENDBRANCH    2    1
BRANCH    2   78
ATOM    130  H40 UNL A   1      29.088  17.924   9.643  1.00  0.00    +0.000 H 
ATOM     78  C55 UNL A   1      26.486  19.419  11.170  1.00  0.00    +0.000 C 
ATOM     79  C56 UNL A   1      25.593  19.356  10.080  1.00  0.00    +0.000 C 
ATOM     80  C57 UNL A   1      25.949  18.746   8.874  1.00  0.00    +0.000 C 
ATOM     81  C58 UNL A   1      27.212  18.171   8.712  1.00  0.00    +0.000 C 
ATOM     88  C64 UNL A   1      28.135  18.302   9.754  1.00  0.00    +0.000 C 
ATOM     89  C65 UNL A   1      27.780  18.940  10.948  1.00  0.00    +0.000 C 
ATOM     90  F16 UNL A   1      28.748  19.090  11.859  1.00  0.00    +0.000 F 
ATOM    123  H33 UNL A   1      24.652  19.770  10.175  1.00  0.00    +0.000 H 
ATOM    124  H34 UNL A   1      25.273  18.720   8.095  1.00  0.00    +0.000 H 
BRANCH   81   82
ATOM     82  C59 UNL A   1      27.568  17.424   7.445  1.00  0.00    +0.000 C 
ATOM    125  H35 UNL A   1      28.409  16.794   7.647  1.00  0.00    +0.000 H 
ATOM    126  H36 UNL A   1      27.783  18.156   6.696  1.00  0.00    +0.000 H 
BRANCH   82   83
ATOM    129  H39 UNL A   1      23.821  15.458   4.909  1.00  0.00    +0.000 H 
ATOM     83  C60 UNL A   1      26.442  16.568   6.923  1.00  0.00    +0.000 C 
ATOM     84  C61 UNL A   1      25.904  15.419   7.473  1.00  0.00    +0.000 C 
ATOM     85  C62 UNL A   1      24.831  14.890   6.700  1.00  0.00    +0.000 C 
ATOM     86  C63 UNL A   1      24.569  15.663   5.591  1.00  0.00    +0.000 C 
ATOM     87  S1  UNL A   1      25.627  17.000   5.476  1.00  0.00    +0.000 S 
ATOM    127  H37 UNL A   1      26.243  14.991   8.348  1.00  0.00    +0.000 H 
ATOM    128  H38 UNL A   1      24.311  14.032   6.942  1.00  0.00    +0.000 H 
ENDBRANCH   82   83
ENDBRANCH   81   82
ENDBRANCH    2   78
ENDBRANCH    3    2
ENDBRANCH    5    3
ENDBRANCH    6    5
ENDBRANCH    7    6
ENDBRANCH    8    7
ENDBRANCH    9    8
ENDBRANCH   10    9
ENDBRANCH   11   10
ENDBRANCH   12   11
ENDBRANCH   13   12
ENDBRANCH   15   13
ENDBRANCH   19   18
BRANCH   23   24
ATOM     33  C24 UNL A   1      26.491   5.850   2.902  1.00  0.00    +0.000 C 
ATOM     34  F5  UNL A   1      25.259   5.491   2.510  1.00  0.00    +0.000 F 
ATOM     24  C19 UNL A   1      26.783   6.002   4.266  1.00  0.00    +0.000 C 
ATOM     25  C20 UNL A   1      28.087   6.374   4.622  1.00  0.00    +0.000 C 
ATOM     26  F1  UNL A   1      28.411   6.544   5.912  1.00  0.00    +0.000 F 
ATOM     27  C21 UNL A   1      29.055   6.610   3.649  1.00  0.00    +0.000 C 
ATOM     28  F2  UNL A   1      30.282   7.009   4.011  1.00  0.00    +0.000 F 
ATOM     29  C22 UNL A   1      28.746   6.449   2.307  1.00  0.00    +0.000 C 
ATOM     30  F3  UNL A   1      29.679   6.673   1.372  1.00  0.00    +0.000 F 
ATOM     31  C23 UNL A   1      27.468   6.062   1.933  1.00  0.00    +0.000 C 
ATOM     32  F4  UNL A   1      27.172   5.896   0.637  1.00  0.00    +0.000 F 
ENDBRANCH   23   24
BRANCH   40   41
ATOM     41  C30 UNL A   1      24.182   0.410   7.994  1.00  0.00    +0.000 C 
ATOM     42  C31 UNL A   1      25.058  -0.073   8.976  1.00  0.00    +0.000 C 
ATOM     43  F6  UNL A   1      25.712   0.783   9.776  1.00  0.00    +0.000 F 
ATOM     44  C32 UNL A   1      25.291  -1.438   9.118  1.00  0.00    +0.000 C 
ATOM     45  F7  UNL A   1      26.163  -1.876  10.038  1.00  0.00    +0.000 F 
ATOM     46  C33 UNL A   1      24.635  -2.345   8.299  1.00  0.00    +0.000 C 
ATOM     47  F8  UNL A   1      24.857  -3.659   8.440  1.00  0.00    +0.000 F 
ATOM     48  C34 UNL A   1      23.754  -1.890   7.330  1.00  0.00    +0.000 C 
ATOM     49  F9  UNL A   1      23.111  -2.766   6.544  1.00  0.00    +0.000 F 
ATOM     50  C35 UNL A   1      23.535  -0.525   7.170  1.00  0.00    +0.000 C 
ATOM     51  F10 UNL A   1      22.685  -0.112   6.219  1.00  0.00    +0.000 F 
ENDBRANCH   40   41
BRANCH   55   56
ATOM     65  C44 UNL A   1      18.177   4.335  10.486  1.00  0.00    +0.000 C 
ATOM     66  F15 UNL A   1      17.908   4.243   9.176  1.00  0.00    +0.000 F 
ATOM     56  C39 UNL A   1      19.478   4.629  10.917  1.00  0.00    +0.000 C 
ATOM     57  C40 UNL A   1      19.708   4.718  12.296  1.00  0.00    +0.000 C 
ATOM     58  F11 UNL A   1      20.941   4.976  12.754  1.00  0.00    +0.000 F 
ATOM     59  C41 UNL A   1      18.678   4.507  13.212  1.00  0.00    +0.000 C 
ATOM     60  F12 UNL A   1      18.932   4.562  14.526  1.00  0.00    +0.000 F 
ATOM     61  C42 UNL A   1      17.396   4.226  12.763  1.00  0.00    +0.000 C 
ATOM     62  F13 UNL A   1      16.405   4.027  13.643  1.00  0.00    +0.000 F 
ATOM     63  C43 UNL A   1      17.144   4.146  11.401  1.00  0.00    +0.000 C 
ATOM     64  F14 UNL A   1      15.904   3.886  10.965  1.00  0.00    +0.000 F 
ENDBRANCH   55   56
TORSDOF 19
ENDMDL
MODEL 6
REMARK VINA RESULT:     -10.0     38.541     43.752
ROOT
ATOM     19  C15 UNL A   1      13.361  49.979   3.755  1.00  0.00    +0.000 C 
ATOM     20  C16 UNL A   1      13.398  51.441   4.101  1.00  0.00    +0.000 C 
ATOM     21  N3  UNL A   1      14.070  52.410   3.533  1.00  0.00    +0.000 N 
ATOM     22  C17 UNL A   1      13.710  53.567   4.210  1.00  0.00    +0.000 C 
ATOM     23  C18 UNL A   1      14.169  54.828   4.030  1.00  0.00    +0.000 C 
ATOM     35  C25 UNL A   1      15.169  55.200   3.065  1.00  0.00    +0.000 C 
ATOM     36  C26 UNL A   1      15.747  56.439   2.854  1.00  0.00    +0.000 C 
ATOM     37  C27 UNL A   1      16.647  56.326   1.787  1.00  0.00    +0.000 C 
ATOM     38  C28 UNL A   1      16.656  55.009   1.360  1.00  0.00    +0.000 C 
ATOM     39  N4  UNL A   1      15.742  54.329   2.150  1.00  0.00    +0.000 N 
ATOM     40  C29 UNL A   1      17.437  54.411   0.309  1.00  0.00    +0.000 C 
ATOM     52  C36 UNL A   1      17.398  53.103  -0.042  1.00  0.00    +0.000 C 
ATOM     53  N5  UNL A   1      16.638  52.077   0.501  1.00  0.00    +0.000 N 
ATOM     54  C37 UNL A   1      16.944  51.002  -0.182  1.00  0.00    +0.000 C 
ATOM     55  C38 UNL A   1      16.439  49.596  -0.014  1.00  0.00    +0.000 C 
ATOM     67  C45 UNL A   1      15.565  49.321   0.972  1.00  0.00    +0.000 C 
ATOM     68  C46 UNL A   1      14.996  48.008   1.259  1.00  0.00    +0.000 C 
ATOM     69  C47 UNL A   1      14.134  48.118   2.283  1.00  0.00    +0.000 C 
ATOM     70  C48 UNL A   1      14.115  49.506   2.745  1.00  0.00    +0.000 C 
ATOM     71  N6  UNL A   1      15.000  50.146   1.914  1.00  0.00    +0.000 N 
ATOM     72  C49 UNL A   1      17.920  51.231  -1.258  1.00  0.00    +0.000 C 
ATOM     73  C50 UNL A   1      18.190  52.520  -1.107  1.00  0.00    +0.000 C 
ATOM     74  C51 UNL A   1      12.728  53.187   5.205  1.00  0.00    +0.000 C 
ATOM     75  C52 UNL A   1      12.546  51.875   5.220  1.00  0.00    +0.000 C 
ATOM    111  H21 UNL A   1      15.549  57.298   3.389  1.00  0.00    +0.000 H 
ATOM    112  H22 UNL A   1      17.209  57.094   1.388  1.00  0.00    +0.000 H 
ATOM    113  H23 UNL A   1      15.532  53.371   2.073  1.00  0.00    +0.000 H 
ATOM    114  H24 UNL A   1      15.219  47.135   0.756  1.00  0.00    +0.000 H 
ATOM    115  H25 UNL A   1      13.576  47.346   2.681  1.00  0.00    +0.000 H 
ATOM    116  H26 UNL A   1      15.210  51.105   1.987  1.00  0.00    +0.000 H 
ATOM    117  H27 UNL A   1      18.296  50.563  -1.949  1.00  0.00    +0.000 H 
ATOM    118  H28 UNL A   1      18.875  53.042  -1.675  1.00  0.00    +0.000 H 
ATOM    119  H29 UNL A   1      12.236  53.851   5.822  1.00  0.00    +0.000 H 
ATOM    120  H30 UNL A   1      11.960  51.306   5.851  1.00  0.00    +0.000 H 
ENDROOT
BRANCH   19   18
ATOM     76  C53 UNL A   1      11.114  48.931   4.042  1.00  0.00    +0.000 C 
ATOM    109  H19 UNL A   1      12.343  46.873   7.026  1.00  0.00    +0.000 H 
ATOM     77  C54 UNL A   1      10.237  48.077   4.707  1.00  0.00    +0.000 C 
ATOM     15  C11 UNL A   1      10.702  47.282   5.759  1.00  0.00    +0.000 C 
ATOM     16  C12 UNL A   1      12.014  47.428   6.220  1.00  0.00    +0.000 C 
ATOM     17  C13 UNL A   1      12.876  48.326   5.590  1.00  0.00    +0.000 C 
ATOM    110  H20 UNL A   1      13.838  48.450   5.943  1.00  0.00    +0.000 H 
ATOM     18  C14 UNL A   1      12.441  49.064   4.476  1.00  0.00    +0.000 C 
ATOM    121  H31 UNL A   1      10.786  49.468   3.224  1.00  0.00    +0.000 H 
ATOM    122  H32 UNL A   1       9.245  48.031   4.424  1.00  0.00    +0.000 H 
BRANCH   15   13
ATOM     13  C10 UNL A   1       9.821  46.293   6.417  1.00  0.00    +0.000 C 
ATOM     14  O2  UNL A   1       9.826  45.127   6.034  1.00  0.00    +0.000 O 
BRANCH   13   12
ATOM    108  H18 UNL A   1       8.216  47.226   7.166  1.00  0.00    +0.000 H 
ATOM     12  N2  UNL A   1       8.990  46.681   7.437  1.00  0.00    +0.000 N 
BRANCH   12   11
ATOM    106  H16 UNL A   1       8.196  46.747   9.340  1.00  0.00    +0.000 H 
ATOM     11  C9  UNL A   1       9.089  46.405   8.861  1.00  0.00    +0.000 C 
ATOM    107  H17 UNL A   1       9.219  45.349   8.980  1.00  0.00    +0.000 H 
BRANCH   11   10
ATOM    105  H15 UNL A   1       9.954  47.434  10.467  1.00  0.00    +0.000 H 
ATOM     10  C8  UNL A   1      10.286  47.097   9.507  1.00  0.00    +0.000 C 
ATOM    104  H14 UNL A   1      10.598  47.892   8.863  1.00  0.00    +0.000 H 
BRANCH   10    9
ATOM      9  C7  UNL A   1      11.494  46.193   9.765  1.00  0.00    +0.000 C 
ATOM    102  H12 UNL A   1      11.199  45.441  10.467  1.00  0.00    +0.000 H 
ATOM    103  H13 UNL A   1      11.781  45.801   8.812  1.00  0.00    +0.000 H 
BRANCH    9    8
ATOM    100  H10 UNL A   1      12.451  47.903  10.579  1.00  0.00    +0.000 H 
ATOM    101  H11 UNL A   1      13.052  46.319  11.160  1.00  0.00    +0.000 H 
ATOM      8  C6  UNL A   1      12.731  46.902  10.323  1.00  0.00    +0.000 C 
BRANCH    8    7
ATOM     98  H8  UNL A   1      14.197  45.975   9.094  1.00  0.00    +0.000 H 
ATOM     99  H9  UNL A   1      13.624  47.576   8.542  1.00  0.00    +0.000 H 
ATOM      7  C5  UNL A   1      13.932  46.974   9.371  1.00  0.00    +0.000 C 
BRANCH    7    6
ATOM     97  H7  UNL A   1      15.597  47.002  10.697  1.00  0.00    +0.000 H 
ATOM      6  C4  UNL A   1      15.178  47.653   9.958  1.00  0.00    +0.000 C 
ATOM     96  H6  UNL A   1      14.892  48.589  10.392  1.00  0.00    +0.000 H 
BRANCH    6    5
ATOM      5  N1  UNL A   1      16.187  47.894   8.940  1.00  0.00    +0.000 N 
ATOM     95  H5  UNL A   1      16.685  47.125   8.579  1.00  0.00    +0.000 H 
BRANCH    5    3
ATOM      3  C3  UNL A   1      16.477  49.151   8.458  1.00  0.00    +0.000 C 
ATOM      4  O1  UNL A   1      17.551  49.651   8.787  1.00  0.00    +0.000 O 
BRANCH    3    2
ATOM      2  C2  UNL A   1      15.486  49.788   7.479  1.00  0.00    +0.000 C 
ATOM     94  H4  UNL A   1      14.720  49.057   7.327  1.00  0.00    +0.000 H 
BRANCH    2    1
ATOM      1  C1  UNL A   1      16.273  50.143   6.206  1.00  0.00    +0.000 C 
ATOM     91  H1  UNL A   1      16.109  49.390   5.464  1.00  0.00    +0.000 H 
ATOM     92  H2  UNL A   1      17.317  50.195   6.436  1.00  0.00    +0.000 H 
ATOM     93  H3  UNL A   1      15.942  51.089   5.833  1.00  0.00    +0.000 H 
ENDBRANCH    2    1
BRANCH    2   78
ATOM    130  H40 UNL A   1      11.876  52.023   9.505  1.00  0.00    +0.000 H 
ATOM     78  C55 UNL A   1      14.688  50.999   7.961  1.00  0.00    +0.000 C 
ATOM     79  C56 UNL A   1      15.289  52.269   7.847  1.00  0.00    +0.000 C 
ATOM     80  C57 UNL A   1      14.683  53.417   8.365  1.00  0.00    +0.000 C 
ATOM     81  C58 UNL A   1      13.451  53.338   9.020  1.00  0.00    +0.000 C 
ATOM     88  C64 UNL A   1      12.806  52.099   9.064  1.00  0.00    +0.000 C 
ATOM     89  C65 UNL A   1      13.407  50.959   8.518  1.00  0.00    +0.000 C 
ATOM     90  F16 UNL A   1      12.684  49.834   8.534  1.00  0.00    +0.000 F 
ATOM    123  H33 UNL A   1      16.201  52.354   7.371  1.00  0.00    +0.000 H 
ATOM    124  H34 UNL A   1      15.148  54.332   8.262  1.00  0.00    +0.000 H 
BRANCH   81   82
ATOM     82  C59 UNL A   1      12.838  54.560   9.668  1.00  0.00    +0.000 C 
ATOM    125  H35 UNL A   1      11.828  54.656   9.325  1.00  0.00    +0.000 H 
ATOM    126  H36 UNL A   1      13.439  55.401   9.390  1.00  0.00    +0.000 H 
BRANCH   82   83
ATOM    129  H39 UNL A   1      13.840  53.811  14.439  1.00  0.00    +0.000 H 
ATOM     83  C60 UNL A   1      12.828  54.496  11.173  1.00  0.00    +0.000 C 
ATOM     84  C61 UNL A   1      11.835  54.896  12.049  1.00  0.00    +0.000 C 
ATOM     85  C62 UNL A   1      12.177  54.662  13.412  1.00  0.00    +0.000 C 
ATOM     86  C63 UNL A   1      13.415  54.073  13.536  1.00  0.00    +0.000 C 
ATOM     87  S1  UNL A   1      14.164  53.828  12.019  1.00  0.00    +0.000 S 
ATOM    127  H37 UNL A   1      10.943  55.318  11.747  1.00  0.00    +0.000 H 
ATOM    128  H38 UNL A   1      11.569  54.905  14.210  1.00  0.00    +0.000 H 
ENDBRANCH   82   83
ENDBRANCH   81   82
ENDBRANCH    2   78
ENDBRANCH    3    2
ENDBRANCH    5    3
ENDBRANCH    6    5
ENDBRANCH    7    6
ENDBRANCH    8    7
ENDBRANCH    9    8
ENDBRANCH   10    9
ENDBRANCH   11   10
ENDBRANCH   12   11
ENDBRANCH   13   12
ENDBRANCH   15   13
ENDBRANCH   19   18
BRANCH   23   24
ATOM     33  C24 UNL A   1      14.258  56.302   6.074  1.00  0.00    +0.000 C 
ATOM     34  F5  UNL A   1      15.430  55.743   6.409  1.00  0.00    +0.000 F 
ATOM     24  C19 UNL A   1      13.593  55.904   4.904  1.00  0.00    +0.000 C 
ATOM     25  C20 UNL A   1      12.369  56.516   4.602  1.00  0.00    +0.000 C 
ATOM     26  F1  UNL A   1      11.702  56.178   3.489  1.00  0.00    +0.000 F 
ATOM     27  C21 UNL A   1      11.842  57.508   5.426  1.00  0.00    +0.000 C 
ATOM     28  F2  UNL A   1      10.693  58.111   5.094  1.00  0.00    +0.000 F 
ATOM     29  C22 UNL A   1      12.513  57.882   6.580  1.00  0.00    +0.000 C 
ATOM     30  F3  UNL A   1      12.003  58.835   7.374  1.00  0.00    +0.000 F 
ATOM     31  C23 UNL A   1      13.716  57.276   6.909  1.00  0.00    +0.000 C 
ATOM     32  F4  UNL A   1      14.360  57.630   8.029  1.00  0.00    +0.000 F 
ENDBRANCH   23   24
BRANCH   40   41
ATOM     41  C30 UNL A   1      18.382  55.296  -0.447  1.00  0.00    +0.000 C 
ATOM     42  C31 UNL A   1      18.074  55.769  -1.730  1.00  0.00    +0.000 C 
ATOM     43  F6  UNL A   1      16.936  55.392  -2.334  1.00  0.00    +0.000 F 
ATOM     44  C32 UNL A   1      18.953  56.606  -2.414  1.00  0.00    +0.000 C 
ATOM     45  F7  UNL A   1      18.656  57.016  -3.655  1.00  0.00    +0.000 F 
ATOM     46  C33 UNL A   1      20.139  57.005  -1.817  1.00  0.00    +0.000 C 
ATOM     47  F8  UNL A   1      20.981  57.814  -2.474  1.00  0.00    +0.000 F 
ATOM     48  C34 UNL A   1      20.457  56.559  -0.544  1.00  0.00    +0.000 C 
ATOM     49  F9  UNL A   1      21.600  56.951   0.038  1.00  0.00    +0.000 F 
ATOM     50  C35 UNL A   1      19.593  55.704   0.133  1.00  0.00    +0.000 C 
ATOM     51  F10 UNL A   1      19.930  55.281   1.360  1.00  0.00    +0.000 F 
ENDBRANCH   40   41
BRANCH   55   56
ATOM     65  C44 UNL A   1      18.088  47.791  -0.617  1.00  0.00    +0.000 C 
ATOM     66  F15 UNL A   1      18.806  48.086   0.476  1.00  0.00    +0.000 F 
ATOM     56  C39 UNL A   1      16.916  48.505  -0.902  1.00  0.00    +0.000 C 
ATOM     57  C40 UNL A   1      16.202  48.162  -2.058  1.00  0.00    +0.000 C 
ATOM     58  F11 UNL A   1      15.064  48.805  -2.357  1.00  0.00    +0.000 F 
ATOM     59  C41 UNL A   1      16.637  47.133  -2.891  1.00  0.00    +0.000 C 
ATOM     60  F12 UNL A   1      15.917  46.801  -3.972  1.00  0.00    +0.000 F 
ATOM     61  C42 UNL A   1      17.805  46.446  -2.596  1.00  0.00    +0.000 C 
ATOM     62  F13 UNL A   1      18.225  45.459  -3.400  1.00  0.00    +0.000 F 
ATOM     63  C43 UNL A   1      18.533  46.778  -1.463  1.00  0.00    +0.000 C 
ATOM     64  F14 UNL A   1      19.667  46.123  -1.182  1.00  0.00    +0.000 F 
ENDBRANCH   55   56
TORSDOF 19
ENDMDL
MODEL 7
REMARK VINA RESULT:     -10.0     38.229     43.462
ROOT
ATOM     19  C15 UNL A   1      14.000  53.975   4.956  1.00  0.00    +0.000 C 
ATOM     20  C16 UNL A   1      14.979  54.395   3.897  1.00  0.00    +0.000 C 
ATOM     21  N3  UNL A   1      15.479  53.697   2.908  1.00  0.00    +0.000 N 
ATOM     22  C17 UNL A   1      16.293  54.572   2.202  1.00  0.00    +0.000 C 
ATOM     23  C18 UNL A   1      17.071  54.318   1.124  1.00  0.00    +0.000 C 
ATOM     35  C25 UNL A   1      17.201  53.027   0.501  1.00  0.00    +0.000 C 
ATOM     36  C26 UNL A   1      18.014  52.656  -0.555  1.00  0.00    +0.000 C 
ATOM     37  C27 UNL A   1      17.778  51.305  -0.836  1.00  0.00    +0.000 C 
ATOM     38  C28 UNL A   1      16.845  50.828   0.069  1.00  0.00    +0.000 C 
ATOM     39  N4  UNL A   1      16.496  51.895   0.881  1.00  0.00    +0.000 N 
ATOM     40  C29 UNL A   1      16.308  49.497   0.186  1.00  0.00    +0.000 C 
ATOM     52  C36 UNL A   1      15.401  49.102   1.113  1.00  0.00    +0.000 C 
ATOM     53  N5  UNL A   1      14.806  49.846   2.121  1.00  0.00    +0.000 N 
ATOM     54  C37 UNL A   1      13.997  49.026   2.745  1.00  0.00    +0.000 C 
ATOM     55  C38 UNL A   1      13.113  49.285   3.933  1.00  0.00    +0.000 C 
ATOM     67  C45 UNL A   1      13.118  50.503   4.507  1.00  0.00    +0.000 C 
ATOM     68  C46 UNL A   1      12.321  50.898   5.664  1.00  0.00    +0.000 C 
ATOM     69  C47 UNL A   1      12.550  52.193   5.933  1.00  0.00    +0.000 C 
ATOM     70  C48 UNL A   1      13.536  52.712   4.984  1.00  0.00    +0.000 C 
ATOM     71  N6  UNL A   1      13.822  51.636   4.180  1.00  0.00    +0.000 N 
ATOM     72  C49 UNL A   1      13.969  47.667   2.183  1.00  0.00    +0.000 C 
ATOM     73  C50 UNL A   1      14.868  47.759   1.213  1.00  0.00    +0.000 C 
ATOM     74  C51 UNL A   1      16.190  55.863   2.851  1.00  0.00    +0.000 C 
ATOM     75  C52 UNL A   1      15.437  55.792   3.939  1.00  0.00    +0.000 C 
ATOM    111  H21 UNL A   1      18.680  53.269  -1.050  1.00  0.00    +0.000 H 
ATOM    112  H22 UNL A   1      18.224  50.758  -1.588  1.00  0.00    +0.000 H 
ATOM    113  H23 UNL A   1      15.845  51.855   1.618  1.00  0.00    +0.000 H 
ATOM    114  H24 UNL A   1      11.684  50.281   6.192  1.00  0.00    +0.000 H 
ATOM    115  H25 UNL A   1      12.103  52.736   6.689  1.00  0.00    +0.000 H 
ATOM    116  H26 UNL A   1      14.470  51.674   3.440  1.00  0.00    +0.000 H 
ATOM    117  H27 UNL A   1      13.400  46.855   2.469  1.00  0.00    +0.000 H 
ATOM    118  H28 UNL A   1      15.151  46.974   0.606  1.00  0.00    +0.000 H 
ATOM    119  H29 UNL A   1      16.643  56.725   2.510  1.00  0.00    +0.000 H 
ATOM    120  H30 UNL A   1      15.228  56.525   4.636  1.00  0.00    +0.000 H 
ENDROOT
BRANCH   19   18
ATOM     76  C53 UNL A   1      12.277  55.633   5.673  1.00  0.00    +0.000 C 
ATOM    109  H19 UNL A   1      14.167  56.342   8.925  1.00  0.00    +0.000 H 
ATOM     77  C54 UNL A   1      11.779  56.569   6.577  1.00  0.00    +0.000 C 
ATOM     15  C11 UNL A   1      12.439  56.783   7.791  1.00  0.00    +0.000 C 
ATOM     16  C12 UNL A   1      13.658  56.149   8.048  1.00  0.00    +0.000 C 
ATOM     17  C13 UNL A   1      14.186  55.255   7.115  1.00  0.00    +0.000 C 
ATOM    110  H20 UNL A   1      15.096  54.803   7.294  1.00  0.00    +0.000 H 
ATOM     18  C14 UNL A   1      13.485  54.968   5.933  1.00  0.00    +0.000 C 
ATOM    121  H31 UNL A   1      11.754  55.428   4.807  1.00  0.00    +0.000 H 
ATOM    122  H32 UNL A   1      10.925  57.103   6.352  1.00  0.00    +0.000 H 
BRANCH   15   13
ATOM     13  C10 UNL A   1      11.880  57.694   8.815  1.00  0.00    +0.000 C 
ATOM     14  O2  UNL A   1      12.430  58.769   9.036  1.00  0.00    +0.000 O 
BRANCH   13   12
ATOM    108  H18 UNL A   1       9.910  57.418   9.044  1.00  0.00    +0.000 H 
ATOM     12  N2  UNL A   1      10.765  57.329   9.525  1.00  0.00    +0.000 N 
BRANCH   12   11
ATOM    106  H16 UNL A   1      10.984  57.599  11.559  1.00  0.00    +0.000 H 
ATOM     11  C9  UNL A   1      10.663  56.831  10.887  1.00  0.00    +0.000 C 
ATOM    107  H17 UNL A   1       9.641  56.561  11.060  1.00  0.00    +0.000 H 
BRANCH   11   10
ATOM    105  H15 UNL A   1      11.369  55.310  12.142  1.00  0.00    +0.000 H 
ATOM     10  C8  UNL A   1      11.518  55.588  11.119  1.00  0.00    +0.000 C 
ATOM    104  H14 UNL A   1      12.533  55.837  10.891  1.00  0.00    +0.000 H 
BRANCH   10    9
ATOM      9  C7  UNL A   1      11.127  54.369  10.282  1.00  0.00    +0.000 C 
ATOM    102  H12 UNL A   1      10.358  53.841  10.807  1.00  0.00    +0.000 H 
ATOM    103  H13 UNL A   1      10.815  54.748   9.332  1.00  0.00    +0.000 H 
BRANCH    9    8
ATOM    100  H10 UNL A   1      11.917  52.400  10.228  1.00  0.00    +0.000 H 
ATOM    101  H11 UNL A   1      12.516  53.519   8.963  1.00  0.00    +0.000 H 
ATOM      8  C6  UNL A   1      12.264  53.385   9.995  1.00  0.00    +0.000 C 
BRANCH    8    7
ATOM     98  H8  UNL A   1      13.924  54.603  10.529  1.00  0.00    +0.000 H 
ATOM     99  H9  UNL A   1      13.307  53.526  11.816  1.00  0.00    +0.000 H 
ATOM      7  C5  UNL A   1      13.559  53.629  10.781  1.00  0.00    +0.000 C 
BRANCH    7    6
ATOM     97  H7  UNL A   1      14.833  52.038  11.394  1.00  0.00    +0.000 H 
ATOM      6  C4  UNL A   1      14.680  52.615  10.506  1.00  0.00    +0.000 C 
ATOM     96  H6  UNL A   1      15.569  53.146  10.236  1.00  0.00    +0.000 H 
BRANCH    6    5
ATOM      5  N1  UNL A   1      14.327  51.706   9.427  1.00  0.00    +0.000 N 
ATOM     95  H5  UNL A   1      13.436  51.288   9.438  1.00  0.00    +0.000 H 
BRANCH    5    3
ATOM      3  C3  UNL A   1      15.185  51.404   8.394  1.00  0.00    +0.000 C 
ATOM      4  O1  UNL A   1      15.609  52.339   7.717  1.00  0.00    +0.000 O 
BRANCH    3    2
ATOM      2  C2  UNL A   1      15.616  49.944   8.226  1.00  0.00    +0.000 C 
ATOM     94  H4  UNL A   1      16.385  49.784   8.951  1.00  0.00    +0.000 H 
BRANCH    2    1
ATOM      1  C1  UNL A   1      16.086  49.777   6.770  1.00  0.00    +0.000 C 
ATOM     91  H1  UNL A   1      15.579  50.486   6.149  1.00  0.00    +0.000 H 
ATOM     92  H2  UNL A   1      15.863  48.786   6.436  1.00  0.00    +0.000 H 
ATOM     93  H3  UNL A   1      17.141  49.944   6.714  1.00  0.00    +0.000 H 
ENDBRANCH    2    1
BRANCH    2   78
ATOM    130  H40 UNL A   1      14.203  45.717   9.730  1.00  0.00    +0.000 H 
ATOM     78  C55 UNL A   1      14.603  48.857   8.581  1.00  0.00    +0.000 C 
ATOM     79  C56 UNL A   1      13.235  49.192   8.528  1.00  0.00    +0.000 C 
ATOM     80  C57 UNL A   1      12.244  48.299   8.945  1.00  0.00    +0.000 C 
ATOM     81  C58 UNL A   1      12.584  47.036   9.436  1.00  0.00    +0.000 C 
ATOM     88  C64 UNL A   1      13.931  46.660   9.413  1.00  0.00    +0.000 C 
ATOM     89  C65 UNL A   1      14.914  47.550   8.967  1.00  0.00    +0.000 C 
ATOM     90  F16 UNL A   1      16.165  47.080   8.905  1.00  0.00    +0.000 F 
ATOM    123  H33 UNL A   1      12.957  50.121   8.174  1.00  0.00    +0.000 H 
ATOM    124  H34 UNL A   1      11.251  48.575   8.890  1.00  0.00    +0.000 H 
BRANCH   81   82
ATOM     82  C59 UNL A   1      11.524  46.103   9.980  1.00  0.00    +0.000 C 
ATOM    125  H35 UNL A   1      11.836  45.095   9.804  1.00  0.00    +0.000 H 
ATOM    126  H36 UNL A   1      10.609  46.336   9.475  1.00  0.00    +0.000 H 
BRANCH   82   83
ATOM    129  H39 UNL A   1      11.512  45.817  14.904  1.00  0.00    +0.000 H 
ATOM     83  C60 UNL A   1      11.277  46.278  11.456  1.00  0.00    +0.000 C 
ATOM     84  C61 UNL A   1      10.366  47.106  12.087  1.00  0.00    +0.000 C 
ATOM     85  C62 UNL A   1      10.407  46.988  13.506  1.00  0.00    +0.000 C 
ATOM     86  C63 UNL A   1      11.337  46.059  13.916  1.00  0.00    +0.000 C 
ATOM     87  S1  UNL A   1      12.166  45.356  12.597  1.00  0.00    +0.000 S 
ATOM    127  H37 UNL A   1       9.726  47.740  11.584  1.00  0.00    +0.000 H 
ATOM    128  H38 UNL A   1       9.812  47.533  14.149  1.00  0.00    +0.000 H 
ENDBRANCH   82   83
ENDBRANCH   81   82
ENDBRANCH    2   78
ENDBRANCH    3    2
ENDBRANCH    5    3
ENDBRANCH    6    5
ENDBRANCH    7    6
ENDBRANCH    8    7
ENDBRANCH    9    8
ENDBRANCH   10    9
ENDBRANCH   11   10
ENDBRANCH   12   11
ENDBRANCH   13   12
ENDBRANCH   15   13
ENDBRANCH   19   18
BRANCH   23   24
ATOM     33  C24 UNL A   1      17.378  56.150  -0.580  1.00  0.00    +0.000 C 
ATOM     34  F5  UNL A   1      16.210  55.805  -1.142  1.00  0.00    +0.000 F 
ATOM     24  C19 UNL A   1      17.850  55.464   0.549  1.00  0.00    +0.000 C 
ATOM     25  C20 UNL A   1      19.079  55.862   1.094  1.00  0.00    +0.000 C 
ATOM     26  F1  UNL A   1      19.567  55.244   2.180  1.00  0.00    +0.000 F 
ATOM     27  C21 UNL A   1      19.796  56.922   0.545  1.00  0.00    +0.000 C 
ATOM     28  F2  UNL A   1      20.946  57.314   1.110  1.00  0.00    +0.000 F 
ATOM     29  C22 UNL A   1      19.313  57.583  -0.573  1.00  0.00    +0.000 C 
ATOM     30  F3  UNL A   1      20.006  58.602  -1.102  1.00  0.00    +0.000 F 
ATOM     31  C23 UNL A   1      18.109  57.195  -1.141  1.00  0.00    +0.000 C 
ATOM     32  F4  UNL A   1      17.647  57.826  -2.229  1.00  0.00    +0.000 F 
ENDBRANCH   23   24
BRANCH   40   41
ATOM     41  C30 UNL A   1      16.799  48.459  -0.777  1.00  0.00    +0.000 C 
ATOM     42  C31 UNL A   1      18.020  47.798  -0.583  1.00  0.00    +0.000 C 
ATOM     43  F6  UNL A   1      18.806  48.124   0.455  1.00  0.00    +0.000 F 
ATOM     44  C32 UNL A   1      18.455  46.822  -1.475  1.00  0.00    +0.000 C 
ATOM     45  F7  UNL A   1      19.644  46.230  -1.291  1.00  0.00    +0.000 F 
ATOM     46  C33 UNL A   1      17.666  46.471  -2.560  1.00  0.00    +0.000 C 
ATOM     47  F8  UNL A   1      18.084  45.527  -3.415  1.00  0.00    +0.000 F 
ATOM     48  C34 UNL A   1      16.449  47.102  -2.764  1.00  0.00    +0.000 C 
ATOM     49  F9  UNL A   1      15.681  46.757  -3.808  1.00  0.00    +0.000 F 
ATOM     50  C35 UNL A   1      16.021  48.095  -1.888  1.00  0.00    +0.000 C 
ATOM     51  F10 UNL A   1      14.844  48.695  -2.114  1.00  0.00    +0.000 F 
ENDBRANCH   40   41
BRANCH   55   56
ATOM     65  C44 UNL A   1      12.782  47.248   5.375  1.00  0.00    +0.000 C 
ATOM     66  F15 UNL A   1      14.076  47.289   5.724  1.00  0.00    +0.000 F 
ATOM     56  C39 UNL A   1      12.261  48.208   4.497  1.00  0.00    +0.000 C 
ATOM     57  C40 UNL A   1      10.904  48.120   4.160  1.00  0.00    +0.000 C 
ATOM     58  F11 UNL A   1      10.358  49.030   3.339  1.00  0.00    +0.000 F 
ATOM     59  C41 UNL A   1      10.095  47.118   4.692  1.00  0.00    +0.000 C 
ATOM     60  F12 UNL A   1       8.792  47.078   4.381  1.00  0.00    +0.000 F 
ATOM     61  C42 UNL A   1      10.633  46.173   5.551  1.00  0.00    +0.000 C 
ATOM     62  F13 UNL A   1       9.856  45.207   6.060  1.00  0.00    +0.000 F 
ATOM     63  C43 UNL A   1      11.977  46.234   5.889  1.00  0.00    +0.000 C 
ATOM     64  F14 UNL A   1      12.503  45.315   6.710  1.00  0.00    +0.000 F 
ENDBRANCH   55   56
TORSDOF 19
ENDMDL
MODEL 8
REMARK VINA RESULT:     -10.0     19.679     24.313
ROOT
ATOM     19  C15 UNL A   1      53.232  19.861  11.668  1.00  0.00    +0.000 C 
ATOM     20  C16 UNL A   1      54.587  19.236  11.500  1.00  0.00    +0.000 C 
ATOM     21  N3  UNL A   1      55.590  19.195  12.342  1.00  0.00    +0.000 N 
ATOM     22  C17 UNL A   1      56.583  18.458  11.710  1.00  0.00    +0.000 C 
ATOM     23  C18 UNL A   1      57.833  18.176  12.148  1.00  0.00    +0.000 C 
ATOM     35  C25 UNL A   1      58.376  18.625  13.403  1.00  0.00    +0.000 C 
ATOM     36  C26 UNL A   1      59.653  18.446  13.905  1.00  0.00    +0.000 C 
ATOM     37  C27 UNL A   1      59.709  19.031  15.175  1.00  0.00    +0.000 C 
ATOM     38  C28 UNL A   1      58.479  19.605  15.447  1.00  0.00    +0.000 C 
ATOM     39  N4  UNL A   1      57.669  19.346  14.353  1.00  0.00    +0.000 N 
ATOM     40  C29 UNL A   1      58.069  20.337  16.618  1.00  0.00    +0.000 C 
ATOM     52  C36 UNL A   1      56.844  20.883  16.805  1.00  0.00    +0.000 C 
ATOM     53  N5  UNL A   1      55.746  20.873  15.956  1.00  0.00    +0.000 N 
ATOM     54  C37 UNL A   1      54.798  21.521  16.585  1.00  0.00    +0.000 C 
ATOM     55  C38 UNL A   1      53.400  21.836  16.129  1.00  0.00    +0.000 C 
ATOM     67  C45 UNL A   1      53.002  21.449  14.902  1.00  0.00    +0.000 C 
ATOM     68  C46 UNL A   1      51.683  21.688  14.324  1.00  0.00    +0.000 C 
ATOM     69  C47 UNL A   1      51.631  21.127  13.104  1.00  0.00    +0.000 C 
ATOM     70  C48 UNL A   1      52.926  20.516  12.803  1.00  0.00    +0.000 C 
ATOM     71  N6  UNL A   1      53.680  20.763  13.924  1.00  0.00    +0.000 N 
ATOM     72  C49 UNL A   1      55.181  21.997  17.922  1.00  0.00    +0.000 C 
ATOM     73  C50 UNL A   1      56.447  21.612  17.993  1.00  0.00    +0.000 C 
ATOM     74  C51 UNL A   1      56.049  18.036  10.432  1.00  0.00    +0.000 C 
ATOM     75  C52 UNL A   1      54.841  18.541  10.228  1.00  0.00    +0.000 C 
ATOM    111  H21 UNL A   1      60.429  17.964  13.426  1.00  0.00    +0.000 H 
ATOM    112  H22 UNL A   1      60.529  19.034  15.802  1.00  0.00    +0.000 H 
ATOM    113  H23 UNL A   1      56.732  19.631  14.265  1.00  0.00    +0.000 H 
ATOM    114  H24 UNL A   1      50.915  22.205  14.778  1.00  0.00    +0.000 H 
ATOM    115  H25 UNL A   1      50.810  21.128  12.480  1.00  0.00    +0.000 H 
ATOM    116  H26 UNL A   1      54.617  20.475  14.017  1.00  0.00    +0.000 H 
ATOM    117  H27 UNL A   1      54.613  22.500  18.622  1.00  0.00    +0.000 H 
ATOM    118  H28 UNL A   1      57.071  21.806  18.791  1.00  0.00    +0.000 H 
ATOM    119  H29 UNL A   1      56.544  17.422   9.767  1.00  0.00    +0.000 H 
ATOM    120  H30 UNL A   1      54.236  18.468   9.395  1.00  0.00    +0.000 H 
ENDROOT
BRANCH   19   18
ATOM     76  C53 UNL A   1      52.012  20.717   9.665  1.00  0.00    +0.000 C 
ATOM    109  H19 UNL A   1      49.911  17.525   9.455  1.00  0.00    +0.000 H 
ATOM     77  C54 UNL A   1      51.048  20.583   8.668  1.00  0.00    +0.000 C 
ATOM     15  C11 UNL A   1      50.323  19.393   8.557  1.00  0.00    +0.000 C 
ATOM     16  C12 UNL A   1      50.479  18.385   9.512  1.00  0.00    +0.000 C 
ATOM     17  C13 UNL A   1      51.405  18.544  10.545  1.00  0.00    +0.000 C 
ATOM    110  H20 UNL A   1      51.506  17.809  11.262  1.00  0.00    +0.000 H 
ATOM     18  C14 UNL A   1      52.200  19.700  10.613  1.00  0.00    +0.000 C 
ATOM    121  H31 UNL A   1      52.593  21.570   9.706  1.00  0.00    +0.000 H 
ATOM    122  H32 UNL A   1      50.869  21.361   8.014  1.00  0.00    +0.000 H 
BRANCH   15   13
ATOM     13  C10 UNL A   1      49.366  19.182   7.448  1.00  0.00    +0.000 C 
ATOM     14  O2  UNL A   1      48.308  19.805   7.433  1.00  0.00    +0.000 O 
BRANCH   13   12
ATOM    108  H18 UNL A   1      48.873  17.937   5.959  1.00  0.00    +0.000 H 
ATOM     12  N2  UNL A   1      49.652  18.281   6.454  1.00  0.00    +0.000 N 
BRANCH   12   11
ATOM    106  H16 UNL A   1      50.951  17.705   4.958  1.00  0.00    +0.000 H 
ATOM     11  C9  UNL A   1      50.940  17.761   6.027  1.00  0.00    +0.000 C 
ATOM    107  H17 UNL A   1      51.697  18.424   6.392  1.00  0.00    +0.000 H 
BRANCH   11   10
ATOM    105  H15 UNL A   1      50.310  16.038   7.037  1.00  0.00    +0.000 H 
ATOM     10  C8  UNL A   1      51.225  16.372   6.593  1.00  0.00    +0.000 C 
ATOM    104  H14 UNL A   1      52.031  16.457   7.291  1.00  0.00    +0.000 H 
BRANCH   10    9
ATOM      9  C7  UNL A   1      51.607  15.316   5.553  1.00  0.00    +0.000 C 
ATOM    102  H12 UNL A   1      52.524  15.622   5.093  1.00  0.00    +0.000 H 
ATOM    103  H13 UNL A   1      51.682  14.390   6.084  1.00  0.00    +0.000 H 
BRANCH    9    8
ATOM    100  H10 UNL A   1      50.671  15.884   3.735  1.00  0.00    +0.000 H 
ATOM    101  H11 UNL A   1      50.785  14.122   4.040  1.00  0.00    +0.000 H 
ATOM      8  C6  UNL A   1      50.574  15.089   4.446  1.00  0.00    +0.000 C 
BRANCH    8    7
ATOM     98  H8  UNL A   1      48.926  14.077   5.330  1.00  0.00    +0.000 H 
ATOM     99  H9  UNL A   1      48.995  15.840   5.614  1.00  0.00    +0.000 H 
ATOM      7  C5  UNL A   1      49.112  15.043   4.910  1.00  0.00    +0.000 C 
BRANCH    7    6
ATOM     97  H7  UNL A   1      47.315  14.544   3.886  1.00  0.00    +0.000 H 
ATOM      6  C4  UNL A   1      48.077  15.289   3.802  1.00  0.00    +0.000 C 
ATOM     96  H6  UNL A   1      48.566  15.230   2.851  1.00  0.00    +0.000 H 
BRANCH    6    5
ATOM      5  N1  UNL A   1      47.454  16.596   3.931  1.00  0.00    +0.000 N 
ATOM     95  H5  UNL A   1      47.917  17.288   4.457  1.00  0.00    +0.000 H 
BRANCH    5    3
ATOM      3  C3  UNL A   1      46.245  16.908   3.351  1.00  0.00    +0.000 C 
ATOM      4  O1  UNL A   1      45.497  15.976   3.064  1.00  0.00    +0.000 O 
BRANCH    3    2
ATOM      2  C2  UNL A   1      45.889  18.389   3.193  1.00  0.00    +0.000 C 
ATOM     94  H4  UNL A   1      46.405  18.720   2.316  1.00  0.00    +0.000 H 
BRANCH    2    1
ATOM      1  C1  UNL A   1      46.333  19.100   4.484  1.00  0.00    +0.000 C 
ATOM     91  H1  UNL A   1      45.921  20.087   4.506  1.00  0.00    +0.000 H 
ATOM     92  H2  UNL A   1      47.400  19.158   4.509  1.00  0.00    +0.000 H 
ATOM     93  H3  UNL A   1      45.985  18.550   5.332  1.00  0.00    +0.000 H 
ENDBRANCH    2    1
BRANCH    2   78
ATOM    130  H40 UNL A   1      42.375  20.172   0.624  1.00  0.00    +0.000 H 
ATOM     78  C55 UNL A   1      44.438  18.742   2.869  1.00  0.00    +0.000 C 
ATOM     79  C56 UNL A   1      43.437  18.270   3.741  1.00  0.00    +0.000 C 
ATOM     80  C57 UNL A   1      42.078  18.446   3.462  1.00  0.00    +0.000 C 
ATOM     81  C58 UNL A   1      41.669  19.100   2.297  1.00  0.00    +0.000 C 
ATOM     88  C64 UNL A   1      42.652  19.647   1.468  1.00  0.00    +0.000 C 
ATOM     89  C65 UNL A   1      44.010  19.491   1.768  1.00  0.00    +0.000 C 
ATOM     90  F16 UNL A   1      44.878  20.115   0.964  1.00  0.00    +0.000 F 
ATOM    123  H33 UNL A   1      43.712  17.780   4.607  1.00  0.00    +0.000 H 
ATOM    124  H34 UNL A   1      41.370  18.091   4.124  1.00  0.00    +0.000 H 
BRANCH   81   82
ATOM     82  C59 UNL A   1      40.202  19.207   1.943  1.00  0.00    +0.000 C 
ATOM    125  H35 UNL A   1      39.662  19.502   2.818  1.00  0.00    +0.000 H 
ATOM    126  H36 UNL A   1      39.892  18.248   1.582  1.00  0.00    +0.000 H 
BRANCH   82   83
ATOM    129  H39 UNL A   1      39.535  21.566  -2.338  1.00  0.00    +0.000 H 
ATOM     83  C60 UNL A   1      39.924  20.206   0.849  1.00  0.00    +0.000 C 
ATOM     84  C61 UNL A   1      39.638  21.555   0.963  1.00  0.00    +0.000 C 
ATOM     85  C62 UNL A   1      39.450  22.185  -0.300  1.00  0.00    +0.000 C 
ATOM     86  C63 UNL A   1      39.617  21.303  -1.343  1.00  0.00    +0.000 C 
ATOM     87  S1  UNL A   1      39.973  19.723  -0.797  1.00  0.00    +0.000 S 
ATOM    127  H37 UNL A   1      39.568  22.050   1.866  1.00  0.00    +0.000 H 
ATOM    128  H38 UNL A   1      39.218  23.184  -0.418  1.00  0.00    +0.000 H 
ENDBRANCH   82   83
ENDBRANCH   81   82
ENDBRANCH    2   78
ENDBRANCH    3    2
ENDBRANCH    5    3
ENDBRANCH    6    5
ENDBRANCH    7    6
ENDBRANCH    8    7
ENDBRANCH    9    8
ENDBRANCH   10    9
ENDBRANCH   11   10
ENDBRANCH   12   11
ENDBRANCH   13   12
ENDBRANCH   15   13
ENDBRANCH   19   18
BRANCH   23   24
ATOM     33  C24 UNL A   1      59.513  17.946  10.283  1.00  0.00    +0.000 C 
ATOM     34  F5  UNL A   1      59.535  19.281  10.157  1.00  0.00    +0.000 F 
ATOM     24  C19 UNL A   1      58.705  17.341  11.257  1.00  0.00    +0.000 C 
ATOM     25  C20 UNL A   1      58.715  15.942  11.344  1.00  0.00    +0.000 C 
ATOM     26  F1  UNL A   1      57.968  15.317  12.266  1.00  0.00    +0.000 F 
ATOM     27  C21 UNL A   1      59.524  15.178  10.505  1.00  0.00    +0.000 C 
ATOM     28  F2  UNL A   1      59.551  13.845  10.636  1.00  0.00    +0.000 F 
ATOM     29  C22 UNL A   1      60.311  15.797   9.546  1.00  0.00    +0.000 C 
ATOM     30  F3  UNL A   1      61.086  15.060   8.738  1.00  0.00    +0.000 F 
ATOM     31  C23 UNL A   1      60.302  17.179   9.429  1.00  0.00    +0.000 C 
ATOM     32  F4  UNL A   1      61.054  17.776   8.496  1.00  0.00    +0.000 F 
ENDBRANCH   23   24
BRANCH   40   41
ATOM     41  C30 UNL A   1      59.078  20.527  17.710  1.00  0.00    +0.000 C 
ATOM     42  C31 UNL A   1      59.747  21.747  17.885  1.00  0.00    +0.000 C 
ATOM     43  F6  UNL A   1      59.532  22.762  17.034  1.00  0.00    +0.000 F 
ATOM     44  C32 UNL A   1      60.667  21.916  18.916  1.00  0.00    +0.000 C 
ATOM     45  F7  UNL A   1      61.325  23.077  19.041  1.00  0.00    +0.000 F 
ATOM     46  C33 UNL A   1      60.915  20.880  19.805  1.00  0.00    +0.000 C 
ATOM     47  F8  UNL A   1      61.797  21.047  20.799  1.00  0.00    +0.000 F 
ATOM     48  C34 UNL A   1      60.254  19.671  19.658  1.00  0.00    +0.000 C 
ATOM     49  F9  UNL A   1      60.485  18.671  20.522  1.00  0.00    +0.000 F 
ATOM     50  C35 UNL A   1      59.351  19.489  18.615  1.00  0.00    +0.000 C 
ATOM     51  F10 UNL A   1      58.733  18.306  18.492  1.00  0.00    +0.000 F 
ENDBRANCH   40   41
BRANCH   55   56
ATOM     65  C44 UNL A   1      52.324  23.981  16.887  1.00  0.00    +0.000 C 
ATOM     66  F15 UNL A   1      53.036  24.658  15.975  1.00  0.00    +0.000 F 
ATOM     56  C39 UNL A   1      52.467  22.592  17.001  1.00  0.00    +0.000 C 
ATOM     57  C40 UNL A   1      51.703  21.931  17.973  1.00  0.00    +0.000 C 
ATOM     58  F11 UNL A   1      51.793  20.599  18.103  1.00  0.00    +0.000 F 
ATOM     59  C41 UNL A   1      50.818  22.631  18.790  1.00  0.00    +0.000 C 
ATOM     60  F12 UNL A   1      50.073  21.971  19.686  1.00  0.00    +0.000 F 
ATOM     61  C42 UNL A   1      50.698  24.007  18.666  1.00  0.00    +0.000 C 
ATOM     62  F13 UNL A   1      49.850  24.681  19.454  1.00  0.00    +0.000 F 
ATOM     63  C43 UNL A   1      51.455  24.683  17.720  1.00  0.00    +0.000 C 
ATOM     64  F14 UNL A   1      51.349  26.014  17.606  1.00  0.00    +0.000 F 
ENDBRANCH   55   56
TORSDOF 19
ENDMDL
MODEL 9
REMARK VINA RESULT:     -10.0     38.632     43.657
ROOT
ATOM     19  C15 UNL A   1      12.953  49.619   3.791  1.00  0.00    +0.000 C 
ATOM     20  C16 UNL A   1      12.935  51.070   4.181  1.00  0.00    +0.000 C 
ATOM     21  N3  UNL A   1      13.588  52.077   3.657  1.00  0.00    +0.000 N 
ATOM     22  C17 UNL A   1      13.176  53.201   4.360  1.00  0.00    +0.000 C 
ATOM     23  C18 UNL A   1      13.598  54.481   4.228  1.00  0.00    +0.000 C 
ATOM     35  C25 UNL A   1      14.606  54.913   3.297  1.00  0.00    +0.000 C 
ATOM     36  C26 UNL A   1      15.148  56.176   3.135  1.00  0.00    +0.000 C 
ATOM     37  C27 UNL A   1      16.073  56.124   2.086  1.00  0.00    +0.000 C 
ATOM     38  C28 UNL A   1      16.134  54.821   1.621  1.00  0.00    +0.000 C 
ATOM     39  N4  UNL A   1      15.226  54.089   2.369  1.00  0.00    +0.000 N 
ATOM     40  C29 UNL A   1      16.957  54.281   0.570  1.00  0.00    +0.000 C 
ATOM     52  C36 UNL A   1      16.968  52.983   0.179  1.00  0.00    +0.000 C 
ATOM     53  N5  UNL A   1      16.230  51.918   0.675  1.00  0.00    +0.000 N 
ATOM     54  C37 UNL A   1      16.584  50.874  -0.033  1.00  0.00    +0.000 C 
ATOM     55  C38 UNL A   1      16.122  49.448   0.082  1.00  0.00    +0.000 C 
ATOM     67  C45 UNL A   1      15.236  49.116   1.040  1.00  0.00    +0.000 C 
ATOM     68  C46 UNL A   1      14.704  47.777   1.275  1.00  0.00    +0.000 C 
ATOM     69  C47 UNL A   1      13.817  47.829   2.283  1.00  0.00    +0.000 C 
ATOM     70  C48 UNL A   1      13.743  49.201   2.785  1.00  0.00    +0.000 C 
ATOM     71  N6  UNL A   1      14.625  49.894   1.993  1.00  0.00    +0.000 N 
ATOM     72  C49 UNL A   1      17.575  51.166  -1.079  1.00  0.00    +0.000 C 
ATOM     73  C50 UNL A   1      17.800  52.458  -0.884  1.00  0.00    +0.000 C 
ATOM     74  C51 UNL A   1      12.186  52.760   5.321  1.00  0.00    +0.000 C 
ATOM     75  C52 UNL A   1      12.046  51.443   5.293  1.00  0.00    +0.000 C 
ATOM    111  H21 UNL A   1      14.911  57.012   3.691  1.00  0.00    +0.000 H 
ATOM    112  H22 UNL A   1      16.619  56.921   1.723  1.00  0.00    +0.000 H 
ATOM    113  H23 UNL A   1      15.048  53.128   2.259  1.00  0.00    +0.000 H 
ATOM    114  H24 UNL A   1      14.966  46.928   0.752  1.00  0.00    +0.000 H 
ATOM    115  H25 UNL A   1      13.275  47.028   2.644  1.00  0.00    +0.000 H 
ATOM    116  H26 UNL A   1      14.802  50.856   2.099  1.00  0.00    +0.000 H 
ATOM    117  H27 UNL A   1      17.988  50.532  -1.781  1.00  0.00    +0.000 H 
ATOM    118  H28 UNL A   1      18.480  53.018  -1.421  1.00  0.00    +0.000 H 
ATOM    119  H29 UNL A   1      11.659  53.390   5.946  1.00  0.00    +0.000 H 
ATOM    120  H30 UNL A   1      11.466  50.837   5.894  1.00  0.00    +0.000 H 
ENDROOT
BRANCH   19   18
ATOM     76  C53 UNL A   1      12.494  47.963   5.602  1.00  0.00    +0.000 C 
ATOM    109  H19 UNL A   1       8.934  47.394   4.316  1.00  0.00    +0.000 H 
ATOM     77  C54 UNL A   1      11.659  47.053   6.246  1.00  0.00    +0.000 C 
ATOM     15  C11 UNL A   1      10.340  46.890   5.811  1.00  0.00    +0.000 C 
ATOM     16  C12 UNL A   1       9.894  47.549   4.662  1.00  0.00    +0.000 C 
ATOM     17  C13 UNL A   1      10.750  48.418   3.983  1.00  0.00    +0.000 C 
ATOM    110  H20 UNL A   1      10.428  48.888   3.123  1.00  0.00    +0.000 H 
ATOM     18  C14 UNL A   1      12.048  48.654   4.464  1.00  0.00    +0.000 C 
ATOM    121  H31 UNL A   1      13.446  48.131   5.963  1.00  0.00    +0.000 H 
ATOM    122  H32 UNL A   1      12.013  46.499   7.042  1.00  0.00    +0.000 H 
BRANCH   15   13
ATOM     13  C10 UNL A   1       9.399  46.008   6.537  1.00  0.00    +0.000 C 
ATOM     14  O2  UNL A   1       9.453  44.793   6.367  1.00  0.00    +0.000 O 
BRANCH   13   12
ATOM    108  H18 UNL A   1       7.650  46.894   6.942  1.00  0.00    +0.000 H 
ATOM     12  N2  UNL A   1       8.461  46.547   7.380  1.00  0.00    +0.000 N 
BRANCH   12   11
ATOM    106  H16 UNL A   1       7.522  46.978   9.166  1.00  0.00    +0.000 H 
ATOM     11  C9  UNL A   1       8.493  46.682   8.827  1.00  0.00    +0.000 C 
ATOM    107  H17 UNL A   1       8.779  45.735   9.236  1.00  0.00    +0.000 H 
BRANCH   11   10
ATOM    105  H15 UNL A   1       9.035  48.273  10.075  1.00  0.00    +0.000 H 
ATOM     10  C8  UNL A   1       9.511  47.718   9.294  1.00  0.00    +0.000 C 
ATOM    104  H14 UNL A   1       9.785  48.318   8.452  1.00  0.00    +0.000 H 
BRANCH   10    9
ATOM      9  C7  UNL A   1      10.791  47.138   9.900  1.00  0.00    +0.000 C 
ATOM    102  H12 UNL A   1      10.539  46.692  10.840  1.00  0.00    +0.000 H 
ATOM    103  H13 UNL A   1      11.171  46.440   9.184  1.00  0.00    +0.000 H 
BRANCH    9    8
ATOM    100  H10 UNL A   1      12.843  47.620  10.147  1.00  0.00    +0.000 H 
ATOM    101  H11 UNL A   1      11.833  48.873   9.357  1.00  0.00    +0.000 H 
ATOM      8  C6  UNL A   1      11.913  48.151  10.143  1.00  0.00    +0.000 C 
BRANCH    8    7
ATOM     98  H8  UNL A   1      11.267  49.841  11.261  1.00  0.00    +0.000 H 
ATOM     99  H9  UNL A   1      11.330  48.296  12.158  1.00  0.00    +0.000 H 
ATOM      7  C5  UNL A   1      11.813  48.941  11.454  1.00  0.00    +0.000 C 
BRANCH    7    6
ATOM     97  H7  UNL A   1      13.939  48.868  11.503  1.00  0.00    +0.000 H 
ATOM      6  C4  UNL A   1      13.163  49.328  12.077  1.00  0.00    +0.000 C 
ATOM     96  H6  UNL A   1      13.186  48.988  13.093  1.00  0.00    +0.000 H 
BRANCH    6    5
ATOM      5  N1  UNL A   1      13.370  50.766  12.057  1.00  0.00    +0.000 N 
ATOM     95  H5  UNL A   1      12.613  51.354  12.285  1.00  0.00    +0.000 H 
BRANCH    5    3
ATOM      3  C3  UNL A   1      14.577  51.343  11.730  1.00  0.00    +0.000 C 
ATOM      4  O1  UNL A   1      14.693  52.554  11.908  1.00  0.00    +0.000 O 
BRANCH    3    2
ATOM      2  C2  UNL A   1      15.706  50.421  11.260  1.00  0.00    +0.000 C 
ATOM     94  H4  UNL A   1      15.636  49.544  11.869  1.00  0.00    +0.000 H 
BRANCH    2    1
ATOM      1  C1  UNL A   1      17.023  51.197  11.432  1.00  0.00    +0.000 C 
ATOM     91  H1  UNL A   1      17.444  51.402  10.470  1.00  0.00    +0.000 H 
ATOM     92  H2  UNL A   1      17.710  50.609  12.004  1.00  0.00    +0.000 H 
ATOM     93  H3  UNL A   1      16.832  52.117  11.942  1.00  0.00    +0.000 H 
ENDBRANCH    2    1
BRANCH    2   78
ATOM    130  H40 UNL A   1      14.534  50.384   6.705  1.00  0.00    +0.000 H 
ATOM     78  C55 UNL A   1      15.614  49.845   9.849  1.00  0.00    +0.000 C 
ATOM     79  C56 UNL A   1      16.277  48.628   9.592  1.00  0.00    +0.000 C 
ATOM     80  C57 UNL A   1      16.343  48.085   8.305  1.00  0.00    +0.000 C 
ATOM     81  C58 UNL A   1      15.750  48.742   7.224  1.00  0.00    +0.000 C 
ATOM     88  C64 UNL A   1      15.017  49.905   7.480  1.00  0.00    +0.000 C 
ATOM     89  C65 UNL A   1      14.932  50.426   8.775  1.00  0.00    +0.000 C 
ATOM     90  F16 UNL A   1      14.145  51.495   8.941  1.00  0.00    +0.000 F 
ATOM    123  H33 UNL A   1      16.727  48.124  10.372  1.00  0.00    +0.000 H 
ATOM    124  H34 UNL A   1      16.834  47.191   8.152  1.00  0.00    +0.000 H 
BRANCH   81   82
ATOM     82  C59 UNL A   1      15.902  48.210   5.815  1.00  0.00    +0.000 C 
ATOM    125  H35 UNL A   1      14.927  48.093   5.389  1.00  0.00    +0.000 H 
ATOM    126  H36 UNL A   1      16.426  47.279   5.883  1.00  0.00    +0.000 H 
BRANCH   82   83
ATOM    129  H39 UNL A   1      18.021  52.018   3.505  1.00  0.00    +0.000 H 
ATOM     83  C60 UNL A   1      16.711  49.114   4.921  1.00  0.00    +0.000 C 
ATOM     84  C61 UNL A   1      17.537  48.771   3.866  1.00  0.00    +0.000 C 
ATOM     85  C62 UNL A   1      18.126  49.905   3.238  1.00  0.00    +0.000 C 
ATOM     86  C63 UNL A   1      17.718  51.083   3.821  1.00  0.00    +0.000 C 
ATOM     87  S1  UNL A   1      16.651  50.816   5.130  1.00  0.00    +0.000 S 
ATOM    127  H37 UNL A   1      17.707  47.798   3.566  1.00  0.00    +0.000 H 
ATOM    128  H38 UNL A   1      18.780  49.850   2.441  1.00  0.00    +0.000 H 
ENDBRANCH   82   83
ENDBRANCH   81   82
ENDBRANCH    2   78
ENDBRANCH    3    2
ENDBRANCH    5    3
ENDBRANCH    6    5
ENDBRANCH    7    6
ENDBRANCH    8    7
ENDBRANCH    9    8
ENDBRANCH   10    9
ENDBRANCH   11   10
ENDBRANCH   12   11
ENDBRANCH   13   12
ENDBRANCH   15   13
ENDBRANCH   19   18
BRANCH   23   24
ATOM     33  C24 UNL A   1      13.475  55.740   6.409  1.00  0.00    +0.000 C 
ATOM     34  F5  UNL A   1      14.544  55.060   6.846  1.00  0.00    +0.000 F 
ATOM     24  C19 UNL A   1      12.969  55.511   5.120  1.00  0.00    +0.000 C 
ATOM     25  C20 UNL A   1      11.847  56.246   4.713  1.00  0.00    +0.000 C 
ATOM     26  F1  UNL A   1      11.333  56.070   3.487  1.00  0.00    +0.000 F 
ATOM     27  C21 UNL A   1      11.268  57.193   5.555  1.00  0.00    +0.000 C 
ATOM     28  F2  UNL A   1      10.224  57.916   5.128  1.00  0.00    +0.000 F 
ATOM     29  C22 UNL A   1      11.781  57.400   6.825  1.00  0.00    +0.000 C 
ATOM     30  F3  UNL A   1      11.221  58.310   7.635  1.00  0.00    +0.000 F 
ATOM     31  C23 UNL A   1      12.879  56.671   7.256  1.00  0.00    +0.000 C 
ATOM     32  F4  UNL A   1      13.369  56.863   8.488  1.00  0.00    +0.000 F 
ENDBRANCH   23   24
BRANCH   40   41
ATOM     41  C30 UNL A   1      17.889  55.217  -0.138  1.00  0.00    +0.000 C 
ATOM     42  C31 UNL A   1      19.129  55.571   0.411  1.00  0.00    +0.000 C 
ATOM     43  F6  UNL A   1      19.487  55.113   1.620  1.00  0.00    +0.000 F 
ATOM     44  C32 UNL A   1      19.993  56.427  -0.267  1.00  0.00    +0.000 C 
ATOM     45  F7  UNL A   1      21.157  56.784   0.294  1.00  0.00    +0.000 F 
ATOM     46  C33 UNL A   1      19.645  56.922  -1.515  1.00  0.00    +0.000 C 
ATOM     47  F8  UNL A   1      20.480  57.741  -2.168  1.00  0.00    +0.000 F 
ATOM     48  C34 UNL A   1      18.429  56.573  -2.083  1.00  0.00    +0.000 C 
ATOM     49  F9  UNL A   1      18.095  57.044  -3.293  1.00  0.00    +0.000 F 
ATOM     50  C35 UNL A   1      17.552  55.737  -1.398  1.00  0.00    +0.000 C 
ATOM     51  F10 UNL A   1      16.379  55.425  -1.966  1.00  0.00    +0.000 F 
ENDBRANCH   40   41
BRANCH   55   56
ATOM     65  C44 UNL A   1      15.932  47.977  -1.952  1.00  0.00    +0.000 C 
ATOM     66  F15 UNL A   1      14.738  48.521  -2.230  1.00  0.00    +0.000 F 
ATOM     56  C39 UNL A   1      16.652  48.400  -0.826  1.00  0.00    +0.000 C 
ATOM     57  C40 UNL A   1      17.893  47.799  -0.577  1.00  0.00    +0.000 C 
ATOM     58  F11 UNL A   1      18.625  48.188   0.477  1.00  0.00    +0.000 F 
ATOM     59  C41 UNL A   1      18.403  46.822  -1.430  1.00  0.00    +0.000 C 
ATOM     60  F12 UNL A   1      19.608  46.289  -1.189  1.00  0.00    +0.000 F 
ATOM     61  C42 UNL A   1      17.670  46.412  -2.533  1.00  0.00    +0.000 C 
ATOM     62  F13 UNL A   1      18.158  45.469  -3.351  1.00  0.00    +0.000 F 
ATOM     63  C43 UNL A   1      16.433  46.985  -2.792  1.00  0.00    +0.000 C 
ATOM     64  F14 UNL A   1      15.717  46.582  -3.851  1.00  0.00    +0.000 F 
ENDBRANCH   55   56
TORSDOF 19
ENDMDL
MODEL 10
REMARK VINA RESULT:      -9.9     20.883     25.553
ROOT
ATOM     19  C15 UNL A   1      52.762  20.358  11.579  1.00  0.00    +0.000 C 
ATOM     20  C16 UNL A   1      52.634  20.951  12.953  1.00  0.00    +0.000 C 
ATOM     21  N3  UNL A   1      53.521  21.011  13.915  1.00  0.00    +0.000 N 
ATOM     22  C17 UNL A   1      52.907  21.702  14.952  1.00  0.00    +0.000 C 
ATOM     23  C18 UNL A   1      53.393  21.981  16.184  1.00  0.00    +0.000 C 
ATOM     35  C25 UNL A   1      54.691  21.578  16.657  1.00  0.00    +0.000 C 
ATOM     36  C26 UNL A   1      55.246  21.756  17.912  1.00  0.00    +0.000 C 
ATOM     37  C27 UNL A   1      56.542  21.226  17.896  1.00  0.00    +0.000 C 
ATOM     38  C28 UNL A   1      56.779  20.686  16.643  1.00  0.00    +0.000 C 
ATOM     39  N4  UNL A   1      55.636  20.912  15.892  1.00  0.00    +0.000 N 
ATOM     40  C29 UNL A   1      57.958  20.015  16.163  1.00  0.00    +0.000 C 
ATOM     52  C36 UNL A   1      58.108  19.499  14.919  1.00  0.00    +0.000 C 
ATOM     53  N5  UNL A   1      57.207  19.491  13.864  1.00  0.00    +0.000 N 
ATOM     54  C37 UNL A   1      57.816  18.888  12.874  1.00  0.00    +0.000 C 
ATOM     55  C38 UNL A   1      57.307  18.579  11.494  1.00  0.00    +0.000 C 
ATOM     67  C45 UNL A   1      56.047  18.918  11.163  1.00  0.00    +0.000 C 
ATOM     68  C46 UNL A   1      55.416  18.678   9.869  1.00  0.00    +0.000 C 
ATOM     69  C47 UNL A   1      54.172  19.185   9.886  1.00  0.00    +0.000 C 
ATOM     70  C48 UNL A   1      53.909  19.759  11.206  1.00  0.00    +0.000 C 
ATOM     71  N6  UNL A   1      55.074  19.549  11.900  1.00  0.00    +0.000 N 
ATOM     72  C49 UNL A   1      59.190  18.465  13.183  1.00  0.00    +0.000 C 
ATOM     73  C50 UNL A   1      59.306  18.830  14.452  1.00  0.00    +0.000 C 
ATOM     74  C51 UNL A   1      51.588  22.077  14.487  1.00  0.00    +0.000 C 
ATOM     75  C52 UNL A   1      51.347  21.584  13.281  1.00  0.00    +0.000 C 
ATOM    111  H21 UNL A   1      54.785  22.202  18.720  1.00  0.00    +0.000 H 
ATOM    112  H22 UNL A   1      57.207  21.236  18.685  1.00  0.00    +0.000 H 
ATOM    113  H23 UNL A   1      55.514  20.639  14.954  1.00  0.00    +0.000 H 
ATOM    114  H24 UNL A   1      55.854  18.195   9.069  1.00  0.00    +0.000 H 
ATOM    115  H25 UNL A   1      53.509  19.171   9.096  1.00  0.00    +0.000 H 
ATOM    116  H26 UNL A   1      55.200  19.823  12.837  1.00  0.00    +0.000 H 
ATOM    117  H27 UNL A   1      59.882  18.003  12.572  1.00  0.00    +0.000 H 
ATOM    118  H28 UNL A   1      60.141  18.660  15.033  1.00  0.00    +0.000 H 
ATOM    119  H29 UNL A   1      50.922  22.652  15.026  1.00  0.00    +0.000 H 
ATOM    120  H30 UNL A   1      50.483  21.631  12.718  1.00  0.00    +0.000 H 
ENDROOT
BRANCH   19   18
ATOM     76  C53 UNL A   1      51.664  21.548   9.679  1.00  0.00    +0.000 C 
ATOM    109  H19 UNL A   1      48.811  18.999   9.599  1.00  0.00    +0.000 H 
ATOM     77  C54 UNL A   1      50.630  21.690   8.756  1.00  0.00    +0.000 C 
ATOM     15  C11 UNL A   1      49.620  20.725   8.689  1.00  0.00    +0.000 C 
ATOM     16  C12 UNL A   1      49.581  19.685   9.621  1.00  0.00    +0.000 C 
ATOM     17  C13 UNL A   1      50.587  19.576  10.584  1.00  0.00    +0.000 C 
ATOM    110  H20 UNL A   1      50.547  18.821  11.286  1.00  0.00    +0.000 H 
ATOM     18  C14 UNL A   1      51.652  20.491  10.602  1.00  0.00    +0.000 C 
ATOM    121  H31 UNL A   1      52.443  22.225   9.684  1.00  0.00    +0.000 H 
ATOM    122  H32 UNL A   1      50.609  22.505   8.123  1.00  0.00    +0.000 H 
BRANCH   15   13
ATOM     13  C10 UNL A   1      48.566  20.793   7.652  1.00  0.00    +0.000 C 
ATOM     14  O2  UNL A   1      48.178  21.887   7.253  1.00  0.00    +0.000 O 
BRANCH   13   12
ATOM    108  H18 UNL A   1      47.460  19.129   7.790  1.00  0.00    +0.000 H 
ATOM     12  N2  UNL A   1      48.014  19.639   7.155  1.00  0.00    +0.000 N 
BRANCH   12   11
ATOM    106  H16 UNL A   1      47.276  18.444   5.645  1.00  0.00    +0.000 H 
ATOM     11  C9  UNL A   1      48.131  19.062   5.826  1.00  0.00    +0.000 C 
ATOM    107  H17 UNL A   1      48.188  19.868   5.124  1.00  0.00    +0.000 H 
BRANCH   11   10
ATOM    105  H15 UNL A   1      50.213  18.859   5.897  1.00  0.00    +0.000 H 
ATOM     10  C8  UNL A   1      49.390  18.215   5.667  1.00  0.00    +0.000 C 
ATOM    104  H14 UNL A   1      49.412  17.837   4.666  1.00  0.00    +0.000 H 
BRANCH   10    9
ATOM      9  C7  UNL A   1      49.496  17.027   6.626  1.00  0.00    +0.000 C 
ATOM    102  H12 UNL A   1      48.597  16.989   7.206  1.00  0.00    +0.000 H 
ATOM    103  H13 UNL A   1      49.646  16.163   6.013  1.00  0.00    +0.000 H 
BRANCH    9    8
ATOM    100  H10 UNL A   1      50.321  17.408   8.543  1.00  0.00    +0.000 H 
ATOM    101  H11 UNL A   1      51.088  16.084   7.610  1.00  0.00    +0.000 H 
ATOM      8  C6  UNL A   1      50.682  17.074   7.593  1.00  0.00    +0.000 C 
BRANCH    8    7
ATOM     98  H8  UNL A   1      51.527  18.540   6.305  1.00  0.00    +0.000 H 
ATOM     99  H9  UNL A   1      52.040  18.624   8.015  1.00  0.00    +0.000 H 
ATOM      7  C5  UNL A   1      51.835  17.996   7.173  1.00  0.00    +0.000 C 
BRANCH    7    6
ATOM     97  H7  UNL A   1      53.491  16.780   7.728  1.00  0.00    +0.000 H 
ATOM      6  C4  UNL A   1      53.149  17.273   6.843  1.00  0.00    +0.000 C 
ATOM     96  H6  UNL A   1      53.866  17.994   6.505  1.00  0.00    +0.000 H 
BRANCH    6    5
ATOM      5  N1  UNL A   1      52.963  16.272   5.806  1.00  0.00    +0.000 N 
ATOM     95  H5  UNL A   1      53.143  15.329   6.026  1.00  0.00    +0.000 H 
BRANCH    5    3
ATOM      3  C3  UNL A   1      52.549  16.584   4.530  1.00  0.00    +0.000 C 
ATOM      4  O1  UNL A   1      52.743  17.733   4.137  1.00  0.00    +0.000 O 
BRANCH    3    2
ATOM      2  C2  UNL A   1      51.965  15.458   3.672  1.00  0.00    +0.000 C 
ATOM     94  H4  UNL A   1      51.180  15.907   3.100  1.00  0.00    +0.000 H 
BRANCH    2    1
ATOM      1  C1  UNL A   1      51.486  14.359   4.635  1.00  0.00    +0.000 C 
ATOM     91  H1  UNL A   1      50.982  14.807   5.466  1.00  0.00    +0.000 H 
ATOM     92  H2  UNL A   1      52.328  13.802   4.988  1.00  0.00    +0.000 H 
ATOM     93  H3  UNL A   1      50.814  13.703   4.123  1.00  0.00    +0.000 H 
ENDBRANCH    2    1
BRANCH    2   78
ATOM    130  H40 UNL A   1      52.925  13.498  -0.496  1.00  0.00    +0.000 H 
ATOM     78  C55 UNL A   1      52.855  14.856   2.586  1.00  0.00    +0.000 C 
ATOM     79  C56 UNL A   1      54.250  14.888   2.787  1.00  0.00    +0.000 C 
ATOM     80  C57 UNL A   1      55.143  14.465   1.798  1.00  0.00    +0.000 C 
ATOM     81  C58 UNL A   1      54.676  13.998   0.568  1.00  0.00    +0.000 C 
ATOM     88  C64 UNL A   1      53.294  13.881   0.388  1.00  0.00    +0.000 C 
ATOM     89  C65 UNL A   1      52.406  14.280   1.393  1.00  0.00    +0.000 C 
ATOM     90  F16 UNL A   1      51.107  14.059   1.167  1.00  0.00    +0.000 F 
ATOM    123  H33 UNL A   1      54.622  15.233   3.686  1.00  0.00    +0.000 H 
ATOM    124  H34 UNL A   1      56.159  14.499   1.979  1.00  0.00    +0.000 H 
BRANCH   81   82
ATOM     82  C59 UNL A   1      55.640  13.632  -0.540  1.00  0.00    +0.000 C 
ATOM    125  H35 UNL A   1      55.223  12.820  -1.099  1.00  0.00    +0.000 H 
ATOM    126  H36 UNL A   1      56.568  13.368  -0.078  1.00  0.00    +0.000 H 
BRANCH   82   83
ATOM    129  H39 UNL A   1      56.164  16.602  -4.443  1.00  0.00    +0.000 H 
ATOM     83  C60 UNL A   1      55.920  14.771  -1.486  1.00  0.00    +0.000 C 
ATOM     84  C61 UNL A   1      56.491  16.001  -1.212  1.00  0.00    +0.000 C 
ATOM     85  C62 UNL A   1      56.614  16.820  -2.371  1.00  0.00    +0.000 C 
ATOM     86  C63 UNL A   1      56.151  16.183  -3.500  1.00  0.00    +0.000 C 
ATOM     87  S1  UNL A   1      55.551  14.620  -3.155  1.00  0.00    +0.000 S 
ATOM    127  H37 UNL A   1      56.794  16.293  -0.270  1.00  0.00    +0.000 H 
ATOM    128  H38 UNL A   1      57.004  17.775  -2.364  1.00  0.00    +0.000 H 
ENDBRANCH   82   83
ENDBRANCH   81   82
ENDBRANCH    2   78
ENDBRANCH    3    2
ENDBRANCH    5    3
ENDBRANCH    6    5
ENDBRANCH    7    6
ENDBRANCH    8    7
ENDBRANCH    9    8
ENDBRANCH   10    9
ENDBRANCH   11   10
ENDBRANCH   12   11
ENDBRANCH   13   12
ENDBRANCH   15   13
ENDBRANCH   19   18
BRANCH   23   24
ATOM     33  C24 UNL A   1      51.654  22.096  18.006  1.00  0.00    +0.000 C 
ATOM     34  F5  UNL A   1      51.636  20.756  18.054  1.00  0.00    +0.000 F 
ATOM     24  C19 UNL A   1      52.510  22.760  17.114  1.00  0.00    +0.000 C 
ATOM     25  C20 UNL A   1      52.487  24.162  17.100  1.00  0.00    +0.000 C 
ATOM     26  F1  UNL A   1      53.295  24.842  16.274  1.00  0.00    +0.000 F 
ATOM     27  C21 UNL A   1      51.657  24.872  17.963  1.00  0.00    +0.000 C 
ATOM     28  F2  UNL A   1      51.684  26.212  17.964  1.00  0.00    +0.000 F 
ATOM     29  C22 UNL A   1      50.815  24.196  18.833  1.00  0.00    +0.000 C 
ATOM     30  F3  UNL A   1      50.015  24.882  19.661  1.00  0.00    +0.000 F 
ATOM     31  C23 UNL A   1      50.807  22.809  18.850  1.00  0.00    +0.000 C 
ATOM     32  F4  UNL A   1      49.986  22.155  19.682  1.00  0.00    +0.000 F 
ENDBRANCH   23   24
BRANCH   40   41
ATOM     41  C30 UNL A   1      59.106  19.854  17.114  1.00  0.00    +0.000 C 
ATOM     42  C31 UNL A   1      59.405  18.615  17.699  1.00  0.00    +0.000 C 
ATOM     43  F6  UNL A   1      58.629  17.549  17.454  1.00  0.00    +0.000 F 
ATOM     44  C32 UNL A   1      60.486  18.477  18.565  1.00  0.00    +0.000 C 
ATOM     45  F7  UNL A   1      60.731  17.292  19.143  1.00  0.00    +0.000 F 
ATOM     46  C33 UNL A   1      61.300  19.565  18.842  1.00  0.00    +0.000 C 
ATOM     47  F8  UNL A   1      62.343  19.428  19.672  1.00  0.00    +0.000 F 
ATOM     48  C34 UNL A   1      61.030  20.796  18.265  1.00  0.00    +0.000 C 
ATOM     49  F9  UNL A   1      61.822  21.846  18.524  1.00  0.00    +0.000 F 
ATOM     50  C35 UNL A   1      59.937  20.944  17.416  1.00  0.00    +0.000 C 
ATOM     51  F10 UNL A   1      59.693  22.148  16.879  1.00  0.00    +0.000 F 
ENDBRANCH   40   41
BRANCH   55   56
ATOM     65  C44 UNL A   1      58.970  18.589   9.604  1.00  0.00    +0.000 C 
ATOM     66  F15 UNL A   1      58.978  19.930   9.623  1.00  0.00    +0.000 F 
ATOM     56  C39 UNL A   1      58.165  17.879  10.505  1.00  0.00    +0.000 C 
ATOM     57  C40 UNL A   1      58.189  16.479  10.443  1.00  0.00    +0.000 C 
ATOM     58  F11 UNL A   1      57.450  15.759  11.300  1.00  0.00    +0.000 F 
ATOM     59  C41 UNL A   1      58.998  15.814   9.525  1.00  0.00    +0.000 C 
ATOM     60  F12 UNL A   1      59.030  14.474   9.510  1.00  0.00    +0.000 F 
ATOM     61  C42 UNL A   1      59.780  16.536   8.636  1.00  0.00    +0.000 C 
ATOM     62  F13 UNL A   1      60.556  15.897   7.750  1.00  0.00    +0.000 F 
ATOM     63  C43 UNL A   1      59.762  17.923   8.672  1.00  0.00    +0.000 C 
ATOM     64  F14 UNL A   1      60.508  18.623   7.807  1.00  0.00    +0.000 F 
ENDBRANCH   55   56
TORSDOF 19
ENDMDL
