MODEL 1
REMARK VINA RESULT:     -10.7      0.000      0.000
ROOT
ATOM     33  C23 UNL A   1      37.966  30.036  29.851  1.00  0.00    +0.000 C 
ATOM     34  C24 UNL A   1      38.999  29.100  29.294  1.00  0.00    +0.000 C 
ATOM     35  N5  UNL A   1      40.107  28.669  29.843  1.00  0.00    +0.000 N 
ATOM     36  C25 UNL A   1      40.666  27.790  28.926  1.00  0.00    +0.000 C 
ATOM     37  C26 UNL A   1      41.843  27.122  29.004  1.00  0.00    +0.000 C 
ATOM     49  C33 UNL A   1      42.762  27.230  30.108  1.00  0.00    +0.000 C 
ATOM     50  C34 UNL A   1      44.019  26.666  30.240  1.00  0.00    +0.000 C 
ATOM     51  C35 UNL A   1      44.510  26.986  31.512  1.00  0.00    +0.000 C 
ATOM     52  C36 UNL A   1      43.581  27.790  32.152  1.00  0.00    +0.000 C 
ATOM     53  N6  UNL A   1      42.518  27.940  31.275  1.00  0.00    +0.000 N 
ATOM     54  C37 UNL A   1      43.653  28.375  33.467  1.00  0.00    +0.000 C 
ATOM     66  C44 UNL A   1      42.726  29.213  33.995  1.00  0.00    +0.000 C 
ATOM     67  N7  UNL A   1      41.539  29.665  33.435  1.00  0.00    +0.000 N 
ATOM     68  C45 UNL A   1      40.985  30.434  34.340  1.00  0.00    +0.000 C 
ATOM     69  C46 UNL A   1      39.690  31.196  34.269  1.00  0.00    +0.000 C 
ATOM     81  C53 UNL A   1      38.955  31.144  33.142  1.00  0.00    +0.000 C 
ATOM     82  C54 UNL A   1      37.679  31.822  32.935  1.00  0.00    +0.000 C 
ATOM     83  C55 UNL A   1      37.191  31.478  31.733  1.00  0.00    +0.000 C 
ATOM     84  C56 UNL A   1      38.142  30.589  31.066  1.00  0.00    +0.000 C 
ATOM     85  N8  UNL A   1      39.172  30.468  31.966  1.00  0.00    +0.000 N 
ATOM     86  C57 UNL A   1      41.754  30.546  35.587  1.00  0.00    +0.000 C 
ATOM     87  C58 UNL A   1      42.821  29.809  35.311  1.00  0.00    +0.000 C 
ATOM     88  C59 UNL A   1      39.751  27.709  27.807  1.00  0.00    +0.000 C 
ATOM     89  C60 UNL A   1      38.737  28.549  27.956  1.00  0.00    +0.000 C 
ATOM    119  H25 UNL A   1      44.511  26.109  29.525  1.00  0.00    +0.000 H 
ATOM    120  H26 UNL A   1      45.411  26.673  31.907  1.00  0.00    +0.000 H 
ATOM    121  H27 UNL A   1      41.709  28.473  31.452  1.00  0.00    +0.000 H 
ATOM    122  H28 UNL A   1      37.225  32.462  33.605  1.00  0.00    +0.000 H 
ATOM    123  H29 UNL A   1      36.288  31.791  31.342  1.00  0.00    +0.000 H 
ATOM    124  H30 UNL A   1      39.988  29.947  31.786  1.00  0.00    +0.000 H 
ATOM    125  H31 UNL A   1      41.524  31.063  36.450  1.00  0.00    +0.000 H 
ATOM    126  H32 UNL A   1      43.618  29.678  35.954  1.00  0.00    +0.000 H 
ATOM    127  H33 UNL A   1      39.873  27.080  26.998  1.00  0.00    +0.000 H 
ATOM    128  H34 UNL A   1      37.966  28.761  27.304  1.00  0.00    +0.000 H 
ENDROOT
BRANCH   33   32
ATOM    129  H35 UNL A   1      37.185  32.293  28.637  1.00  0.00    +0.000 H 
ATOM    130  H36 UNL A   1      35.135  32.733  27.421  1.00  0.00    +0.000 H 
ATOM    117  H23 UNL A   1      33.909  28.757  28.034  1.00  0.00    +0.000 H 
ATOM    118  H24 UNL A   1      35.856  28.377  29.434  1.00  0.00    +0.000 H 
ATOM     90  C61 UNL A   1      36.484  31.545  28.523  1.00  0.00    +0.000 C 
ATOM     91  C62 UNL A   1      35.326  31.788  27.788  1.00  0.00    +0.000 C 
ATOM     29  C19 UNL A   1      34.422  30.749  27.550  1.00  0.00    +0.000 C 
ATOM     30  C20 UNL A   1      34.606  29.508  28.165  1.00  0.00    +0.000 C 
ATOM     31  C21 UNL A   1      35.734  29.284  28.957  1.00  0.00    +0.000 C 
ATOM     32  C22 UNL A   1      36.704  30.289  29.109  1.00  0.00    +0.000 C 
BRANCH   29   27
ATOM     27  C18 UNL A   1      33.251  30.935  26.664  1.00  0.00    +0.000 C 
ATOM     28  O5  UNL A   1      32.495  31.884  26.850  1.00  0.00    +0.000 O 
BRANCH   27   26
ATOM     26  N4  UNL A   1      32.993  30.040  25.656  1.00  0.00    +0.000 N 
ATOM    116  H22 UNL A   1      33.663  30.020  24.933  1.00  0.00    +0.000 H 
BRANCH   26   25
ATOM     25  C17 UNL A   1      31.883  29.116  25.492  1.00  0.00    +0.000 C 
ATOM    114  H20 UNL A   1      30.972  29.676  25.485  1.00  0.00    +0.000 H 
ATOM    115  H21 UNL A   1      32.036  28.592  24.572  1.00  0.00    +0.000 H 
BRANCH   25   24
ATOM    113  H19 UNL A   1      30.764  27.889  26.755  1.00  0.00    +0.000 H 
ATOM    112  H18 UNL A   1      32.307  28.478  27.462  1.00  0.00    +0.000 H 
ATOM     24  C16 UNL A   1      31.808  28.077  26.605  1.00  0.00    +0.000 C 
BRANCH   24   23
ATOM    111  H17 UNL A   1      31.896  26.346  25.445  1.00  0.00    +0.000 H 
ATOM    110  H16 UNL A   1      32.341  26.108  27.174  1.00  0.00    +0.000 H 
ATOM     23  C15 UNL A   1      32.430  26.714  26.296  1.00  0.00    +0.000 C 
BRANCH   23   22
ATOM    108  H14 UNL A   1      34.056  27.549  25.228  1.00  0.00    +0.000 H 
ATOM    109  H15 UNL A   1      34.455  26.753  26.794  1.00  0.00    +0.000 H 
ATOM     22  C14 UNL A   1      33.903  26.713  25.879  1.00  0.00    +0.000 C 
BRANCH   22   21
ATOM    106  H12 UNL A   1      33.569  24.827  24.986  1.00  0.00    +0.000 H 
ATOM    107  H13 UNL A   1      34.885  25.831  24.271  1.00  0.00    +0.000 H 
ATOM     21  C13 UNL A   1      34.410  25.466  25.157  1.00  0.00    +0.000 C 
BRANCH   21   20
ATOM    105  H11 UNL A   1      34.960  24.009  26.562  1.00  0.00    +0.000 H 
ATOM     20  C12 UNL A   1      35.475  24.644  25.871  1.00  0.00    +0.000 C 
ATOM    104  H10 UNL A   1      36.153  25.319  26.351  1.00  0.00    +0.000 H 
BRANCH   20   19
ATOM     19  N3  UNL A   1      36.245  23.771  25.001  1.00  0.00    +0.000 N 
ATOM    103  H9  UNL A   1      37.210  23.748  25.192  1.00  0.00    +0.000 H 
BRANCH   19   17
ATOM     17  C11 UNL A   1      35.848  22.971  23.952  1.00  0.00    +0.000 C 
ATOM     18  O4  UNL A   1      36.655  22.715  23.056  1.00  0.00    +0.000 O 
BRANCH   17   16
ATOM    131  H37 UNL A   1      33.522  23.821  22.800  1.00  0.00    +0.000 H 
ATOM    100  H6  UNL A   1      31.008  20.761  24.210  1.00  0.00    +0.000 H 
ATOM    101  H7  UNL A   1      32.971  19.503  24.913  1.00  0.00    +0.000 H 
ATOM     11  C6  UNL A   1      32.120  22.423  23.529  1.00  0.00    +0.000 C 
ATOM     12  C7  UNL A   1      31.952  21.164  24.103  1.00  0.00    +0.000 C 
ATOM     13  C8  UNL A   1      33.076  20.455  24.531  1.00  0.00    +0.000 C 
ATOM     14  C9  UNL A   1      34.344  21.036  24.440  1.00  0.00    +0.000 C 
ATOM     16  C10 UNL A   1      34.513  22.318  23.894  1.00  0.00    +0.000 C 
ATOM     92  C63 UNL A   1      33.400  22.954  23.345  1.00  0.00    +0.000 C 
BRANCH   11   10
ATOM     10  C5  UNL A   1      30.945  23.281  23.263  1.00  0.00    +0.000 C 
ATOM     99  H5  UNL A   1      30.408  23.166  22.389  1.00  0.00    +0.000 H 
BRANCH   10    9
ATOM      9  N2  UNL A   1      30.591  24.176  24.129  1.00  0.00    +0.000 N 
BRANCH    9    8
ATOM     97  H3  UNL A   1      27.907  27.803  23.960  1.00  0.00    +0.000 H 
ATOM     98  H4  UNL A   1      28.501  25.581  24.734  1.00  0.00    +0.000 H 
ATOM    132  H38 UNL A   1      32.075  25.754  22.536  1.00  0.00    +0.000 H 
ATOM    133  H39 UNL A   1      31.500  27.985  21.768  1.00  0.00    +0.000 H 
ATOM      6  C2  UNL A   1      28.795  27.370  23.661  1.00  0.00    +0.000 C 
ATOM      5  C1  UNL A   1      29.660  28.055  22.806  1.00  0.00    +0.000 C 
ATOM      7  C3  UNL A   1      29.143  26.092  24.109  1.00  0.00    +0.000 C 
ATOM      8  C4  UNL A   1      30.348  25.495  23.723  1.00  0.00    +0.000 C 
ATOM     93  C64 UNL A   1      31.196  26.192  22.850  1.00  0.00    +0.000 C 
ATOM     94  C65 UNL A   1      30.862  27.473  22.398  1.00  0.00    +0.000 C 
BRANCH    5    2
ATOM      2  S1  UNL A   1      29.229  29.677  22.245  1.00  0.00    +0.000 S 
ATOM      3  O1  UNL A   1      27.849  29.684  21.828  1.00  0.00    +0.000 O 
ATOM      4  O2  UNL A   1      30.301  30.171  21.410  1.00  0.00    +0.000 O 
BRANCH    2    1
ATOM      1  N1  UNL A   1      29.272  30.584  23.659  1.00  0.00    +0.000 N 
ATOM     95  H1  UNL A   1      30.223  30.912  23.824  1.00  0.00    +0.000 H 
ATOM     96  H2  UNL A   1      28.971  30.005  24.443  1.00  0.00    +0.000 H 
ENDBRANCH    2    1
ENDBRANCH    5    2
ENDBRANCH    9    8
ENDBRANCH   10    9
ENDBRANCH   11   10
BRANCH   14   15
ATOM    102  H8  UNL A   1      35.825  19.679  24.373  1.00  0.00    +0.000 H 
ATOM     15  O3  UNL A   1      35.386  20.291  24.929  1.00  0.00    +0.000 O 
ENDBRANCH   14   15
ENDBRANCH   17   16
ENDBRANCH   19   17
ENDBRANCH   20   19
ENDBRANCH   21   20
ENDBRANCH   22   21
ENDBRANCH   23   22
ENDBRANCH   24   23
ENDBRANCH   25   24
ENDBRANCH   26   25
ENDBRANCH   27   26
ENDBRANCH   29   27
ENDBRANCH   33   32
BRANCH   37   38
ATOM     38  C27 UNL A   1      42.200  26.207  27.869  1.00  0.00    +0.000 C 
ATOM     39  C28 UNL A   1      43.060  26.607  26.836  1.00  0.00    +0.000 C 
ATOM     40  F1  UNL A   1      43.561  27.852  26.818  1.00  0.00    +0.000 F 
ATOM     41  C29 UNL A   1      43.375  25.743  25.789  1.00  0.00    +0.000 C 
ATOM     42  F2  UNL A   1      44.154  26.167  24.784  1.00  0.00    +0.000 F 
ATOM     43  C30 UNL A   1      42.871  24.451  25.777  1.00  0.00    +0.000 C 
ATOM     44  F3  UNL A   1      43.178  23.619  24.772  1.00  0.00    +0.000 F 
ATOM     45  C31 UNL A   1      42.040  24.025  26.802  1.00  0.00    +0.000 C 
ATOM     46  F4  UNL A   1      41.562  22.773  26.799  1.00  0.00    +0.000 F 
ATOM     47  C32 UNL A   1      41.698  24.896  27.833  1.00  0.00    +0.000 C 
ATOM     48  F5  UNL A   1      40.877  24.459  28.800  1.00  0.00    +0.000 F 
ENDBRANCH   37   38
BRANCH   54   55
ATOM     65  F10 UNL A   1      43.764  26.130  35.216  1.00  0.00    +0.000 F 
ATOM     55  C38 UNL A   1      44.847  28.048  34.314  1.00  0.00    +0.000 C 
ATOM     56  C39 UNL A   1      45.989  28.863  34.312  1.00  0.00    +0.000 C 
ATOM     57  F6  UNL A   1      46.057  29.926  33.496  1.00  0.00    +0.000 F 
ATOM     58  C40 UNL A   1      47.078  28.571  35.128  1.00  0.00    +0.000 C 
ATOM     59  F7  UNL A   1      48.175  29.342  35.080  1.00  0.00    +0.000 F 
ATOM     60  C41 UNL A   1      47.037  27.478  35.981  1.00  0.00    +0.000 C 
ATOM     61  F8  UNL A   1      48.082  27.206  36.774  1.00  0.00    +0.000 F 
ATOM     62  C42 UNL A   1      45.914  26.666  36.008  1.00  0.00    +0.000 C 
ATOM     63  F9  UNL A   1      45.866  25.618  36.842  1.00  0.00    +0.000 F 
ATOM     64  C43 UNL A   1      44.834  26.938  35.173  1.00  0.00    +0.000 C 
ENDBRANCH   54   55
BRANCH   69   70
ATOM     70  C47 UNL A   1      39.211  32.004  35.421  1.00  0.00    +0.000 C 
ATOM     71  C48 UNL A   1      38.392  31.439  36.407  1.00  0.00    +0.000 C 
ATOM     72  F11 UNL A   1      37.997  30.162  36.298  1.00  0.00    +0.000 F 
ATOM     73  C49 UNL A   1      37.953  32.191  37.495  1.00  0.00    +0.000 C 
ATOM     74  F12 UNL A   1      37.143  31.635  38.406  1.00  0.00    +0.000 F 
ATOM     75  C50 UNL A   1      38.345  33.513  37.631  1.00  0.00    +0.000 C 
ATOM     76  F13 UNL A   1      37.933  34.232  38.685  1.00  0.00    +0.000 F 
ATOM     77  C51 UNL A   1      39.164  34.092  36.672  1.00  0.00    +0.000 C 
ATOM     78  F14 UNL A   1      39.562  35.364  36.811  1.00  0.00    +0.000 F 
ATOM     79  C52 UNL A   1      39.581  33.349  35.571  1.00  0.00    +0.000 C 
ATOM     80  F15 UNL A   1      40.372  33.933  34.658  1.00  0.00    +0.000 F 
ENDBRANCH   69   70
TORSDOF 21
ENDMDL
MODEL 2
REMARK VINA RESULT:     -10.5      1.727      4.051
ROOT
ATOM     33  C23 UNL A   1      38.307  30.351  29.969  1.00  0.00    +0.000 C 
ATOM     34  C24 UNL A   1      39.281  29.362  29.397  1.00  0.00    +0.000 C 
ATOM     35  N5  UNL A   1      40.325  28.807  29.960  1.00  0.00    +0.000 N 
ATOM     36  C25 UNL A   1      40.847  27.936  29.012  1.00  0.00    +0.000 C 
ATOM     37  C26 UNL A   1      41.959  27.167  29.094  1.00  0.00    +0.000 C 
ATOM     49  C33 UNL A   1      42.837  27.132  30.236  1.00  0.00    +0.000 C 
ATOM     50  C34 UNL A   1      44.035  26.455  30.381  1.00  0.00    +0.000 C 
ATOM     51  C35 UNL A   1      44.496  26.658  31.687  1.00  0.00    +0.000 C 
ATOM     52  C36 UNL A   1      43.612  27.502  32.339  1.00  0.00    +0.000 C 
ATOM     53  N6  UNL A   1      42.604  27.792  31.433  1.00  0.00    +0.000 N 
ATOM     54  C37 UNL A   1      43.677  28.003  33.688  1.00  0.00    +0.000 C 
ATOM     66  C44 UNL A   1      42.802  28.885  34.232  1.00  0.00    +0.000 C 
ATOM     67  N7  UNL A   1      41.682  29.469  33.656  1.00  0.00    +0.000 N 
ATOM     68  C45 UNL A   1      41.156  30.231  34.584  1.00  0.00    +0.000 C 
ATOM     69  C46 UNL A   1      39.934  31.104  34.511  1.00  0.00    +0.000 C 
ATOM     81  C53 UNL A   1      39.245  31.179  33.356  1.00  0.00    +0.000 C 
ATOM     82  C54 UNL A   1      38.040  31.976  33.143  1.00  0.00    +0.000 C 
ATOM     83  C55 UNL A   1      37.577  31.744  31.905  1.00  0.00    +0.000 C 
ATOM     84  C56 UNL A   1      38.477  30.816  31.221  1.00  0.00    +0.000 C 
ATOM     85  N8  UNL A   1      39.455  30.556  32.150  1.00  0.00    +0.000 N 
ATOM     86  C57 UNL A   1      41.879  30.205  35.864  1.00  0.00    +0.000 C 
ATOM     87  C58 UNL A   1      42.891  29.395  35.584  1.00  0.00    +0.000 C 
ATOM     88  C59 UNL A   1      39.976  27.999  27.858  1.00  0.00    +0.000 C 
ATOM     89  C60 UNL A   1      39.031  28.913  28.019  1.00  0.00    +0.000 C 
ATOM    119  H25 UNL A   1      44.508  25.899  29.652  1.00  0.00    +0.000 H 
ATOM    120  H26 UNL A   1      45.350  26.247  32.095  1.00  0.00    +0.000 H 
ATOM    121  H27 UNL A   1      41.836  28.382  31.612  1.00  0.00    +0.000 H 
ATOM    122  H28 UNL A   1      37.614  32.614  33.833  1.00  0.00    +0.000 H 
ATOM    123  H29 UNL A   1      36.721  32.155  31.501  1.00  0.00    +0.000 H 
ATOM    124  H30 UNL A   1      40.231  29.977  31.970  1.00  0.00    +0.000 H 
ATOM    125  H31 UNL A   1      41.656  30.689  36.747  1.00  0.00    +0.000 H 
ATOM    126  H32 UNL A   1      43.646  29.159  36.247  1.00  0.00    +0.000 H 
ATOM    127  H33 UNL A   1      40.079  27.409  27.017  1.00  0.00    +0.000 H 
ATOM    128  H34 UNL A   1      38.308  29.228  27.352  1.00  0.00    +0.000 H 
ENDROOT
BRANCH   33   32
ATOM    129  H35 UNL A   1      36.217  28.834  29.258  1.00  0.00    +0.000 H 
ATOM    130  H36 UNL A   1      34.241  29.462  28.001  1.00  0.00    +0.000 H 
ATOM    117  H23 UNL A   1      35.619  33.431  27.807  1.00  0.00    +0.000 H 
ATOM    118  H24 UNL A   1      37.693  32.760  28.874  1.00  0.00    +0.000 H 
ATOM     90  C61 UNL A   1      36.099  29.808  28.939  1.00  0.00    +0.000 C 
ATOM     91  C62 UNL A   1      34.943  30.176  28.252  1.00  0.00    +0.000 C 
ATOM     29  C19 UNL A   1      34.737  31.514  27.904  1.00  0.00    +0.000 C 
ATOM     30  C20 UNL A   1      35.749  32.454  28.115  1.00  0.00    +0.000 C 
ATOM     31  C21 UNL A   1      36.936  32.072  28.744  1.00  0.00    +0.000 C 
ATOM     32  C22 UNL A   1      37.103  30.753  29.198  1.00  0.00    +0.000 C 
BRANCH   29   27
ATOM     27  C18 UNL A   1      33.465  31.963  27.295  1.00  0.00    +0.000 C 
ATOM     28  O5  UNL A   1      32.984  33.043  27.624  1.00  0.00    +0.000 O 
BRANCH   27   26
ATOM     26  N4  UNL A   1      32.810  31.168  26.387  1.00  0.00    +0.000 N 
ATOM    116  H22 UNL A   1      33.192  31.169  25.479  1.00  0.00    +0.000 H 
BRANCH   26   25
ATOM     25  C17 UNL A   1      31.641  30.324  26.563  1.00  0.00    +0.000 C 
ATOM    114  H20 UNL A   1      30.929  30.849  27.165  1.00  0.00    +0.000 H 
ATOM    115  H21 UNL A   1      31.255  30.104  25.590  1.00  0.00    +0.000 H 
BRANCH   25   24
ATOM    113  H19 UNL A   1      31.060  28.692  27.727  1.00  0.00    +0.000 H 
ATOM    112  H18 UNL A   1      32.787  29.158  27.904  1.00  0.00    +0.000 H 
ATOM     24  C16 UNL A   1      31.964  28.995  27.239  1.00  0.00    +0.000 C 
BRANCH   24   23
ATOM    111  H17 UNL A   1      31.591  27.845  25.540  1.00  0.00    +0.000 H 
ATOM    110  H16 UNL A   1      32.366  26.946  26.894  1.00  0.00    +0.000 H 
ATOM     23  C15 UNL A   1      32.336  27.840  26.307  1.00  0.00    +0.000 C 
BRANCH   23   22
ATOM    108  H14 UNL A   1      34.300  28.610  26.143  1.00  0.00    +0.000 H 
ATOM    109  H15 UNL A   1      34.035  26.955  25.484  1.00  0.00    +0.000 H 
ATOM     22  C14 UNL A   1      33.673  27.958  25.572  1.00  0.00    +0.000 C 
BRANCH   22   21
ATOM    106  H12 UNL A   1      32.599  28.693  23.906  1.00  0.00    +0.000 H 
ATOM    107  H13 UNL A   1      34.259  29.356  24.146  1.00  0.00    +0.000 H 
ATOM     21  C13 UNL A   1      33.624  28.494  24.143  1.00  0.00    +0.000 C 
BRANCH   21   20
ATOM    105  H11 UNL A   1      34.409  26.654  23.514  1.00  0.00    +0.000 H 
ATOM     20  C12 UNL A   1      34.183  27.592  23.050  1.00  0.00    +0.000 C 
ATOM    104  H10 UNL A   1      35.044  28.069  22.630  1.00  0.00    +0.000 H 
BRANCH   20   19
ATOM     19  N3  UNL A   1      33.251  27.307  21.972  1.00  0.00    +0.000 N 
ATOM    103  H9  UNL A   1      33.431  27.791  21.134  1.00  0.00    +0.000 H 
BRANCH   19   17
ATOM     17  C11 UNL A   1      32.156  26.472  21.927  1.00  0.00    +0.000 C 
ATOM     18  O4  UNL A   1      31.934  25.832  20.897  1.00  0.00    +0.000 O 
BRANCH   17   16
ATOM    131  H37 UNL A   1      32.368  24.634  23.937  1.00  0.00    +0.000 H 
ATOM    100  H6  UNL A   1      28.689  25.392  25.824  1.00  0.00    +0.000 H 
ATOM    101  H7  UNL A   1      28.450  27.419  24.495  1.00  0.00    +0.000 H 
ATOM     11  C6  UNL A   1      30.508  24.819  24.916  1.00  0.00    +0.000 C 
ATOM     12  C7  UNL A   1      29.394  25.634  25.112  1.00  0.00    +0.000 C 
ATOM     13  C8  UNL A   1      29.244  26.781  24.329  1.00  0.00    +0.000 C 
ATOM     14  C9  UNL A   1      30.170  27.067  23.323  1.00  0.00    +0.000 C 
ATOM     16  C10 UNL A   1      31.276  26.230  23.101  1.00  0.00    +0.000 C 
ATOM     92  C63 UNL A   1      31.486  25.167  23.979  1.00  0.00    +0.000 C 
BRANCH   11   10
ATOM     10  C5  UNL A   1      30.586  23.498  25.575  1.00  0.00    +0.000 C 
ATOM     99  H5  UNL A   1      29.912  22.756  25.329  1.00  0.00    +0.000 H 
BRANCH   10    9
ATOM      9  N2  UNL A   1      31.503  23.273  26.461  1.00  0.00    +0.000 N 
BRANCH    9    8
ATOM     97  H3  UNL A   1      35.994  23.628  26.764  1.00  0.00    +0.000 H 
ATOM     98  H4  UNL A   1      33.728  24.127  27.476  1.00  0.00    +0.000 H 
ATOM    132  H38 UNL A   1      32.216  21.582  24.497  1.00  0.00    +0.000 H 
ATOM    133  H39 UNL A   1      34.480  21.061  23.787  1.00  0.00    +0.000 H 
ATOM      6  C2  UNL A   1      35.192  23.189  26.286  1.00  0.00    +0.000 C 
ATOM      5  C1  UNL A   1      35.402  22.309  25.223  1.00  0.00    +0.000 C 
ATOM      7  C3  UNL A   1      33.885  23.470  26.696  1.00  0.00    +0.000 C 
ATOM      8  C4  UNL A   1      32.787  22.875  26.065  1.00  0.00    +0.000 C 
ATOM     93  C64 UNL A   1      33.017  22.008  24.988  1.00  0.00    +0.000 C 
ATOM     94  C65 UNL A   1      34.319  21.714  24.571  1.00  0.00    +0.000 C 
BRANCH    5    2
ATOM      2  S1  UNL A   1      37.054  21.942  24.707  1.00  0.00    +0.000 S 
ATOM      3  O1  UNL A   1      37.979  22.405  25.709  1.00  0.00    +0.000 O 
ATOM      4  O2  UNL A   1      37.181  22.282  23.307  1.00  0.00    +0.000 O 
BRANCH    2    1
ATOM      1  N1  UNL A   1      37.106  20.264  24.794  1.00  0.00    +0.000 N 
ATOM     95  H1  UNL A   1      36.815  19.868  23.900  1.00  0.00    +0.000 H 
ATOM     96  H2  UNL A   1      36.477  19.942  25.529  1.00  0.00    +0.000 H 
ENDBRANCH    2    1
ENDBRANCH    5    2
ENDBRANCH    9    8
ENDBRANCH   10    9
ENDBRANCH   11   10
BRANCH   14   15
ATOM    102  H8  UNL A   1      30.336  28.292  21.739  1.00  0.00    +0.000 H 
ATOM     15  O3  UNL A   1      29.920  28.185  22.571  1.00  0.00    +0.000 O 
ENDBRANCH   14   15
ENDBRANCH   17   16
ENDBRANCH   19   17
ENDBRANCH   20   19
ENDBRANCH   21   20
ENDBRANCH   22   21
ENDBRANCH   23   22
ENDBRANCH   24   23
ENDBRANCH   25   24
ENDBRANCH   26   25
ENDBRANCH   27   26
ENDBRANCH   29   27
ENDBRANCH   33   32
BRANCH   37   38
ATOM     38  C27 UNL A   1      42.286  26.290  27.920  1.00  0.00    +0.000 C 
ATOM     39  C28 UNL A   1      41.673  25.043  27.731  1.00  0.00    +0.000 C 
ATOM     40  F1  UNL A   1      40.793  24.581  28.633  1.00  0.00    +0.000 F 
ATOM     41  C29 UNL A   1      41.994  24.243  26.637  1.00  0.00    +0.000 C 
ATOM     42  F2  UNL A   1      41.436  23.031  26.508  1.00  0.00    +0.000 F 
ATOM     43  C30 UNL A   1      42.902  24.691  25.690  1.00  0.00    +0.000 C 
ATOM     44  F3  UNL A   1      43.207  23.922  24.635  1.00  0.00    +0.000 F 
ATOM     45  C31 UNL A   1      43.501  25.932  25.841  1.00  0.00    +0.000 C 
ATOM     46  F4  UNL A   1      44.369  26.373  24.920  1.00  0.00    +0.000 F 
ATOM     47  C32 UNL A   1      43.206  26.721  26.951  1.00  0.00    +0.000 C 
ATOM     48  F5  UNL A   1      43.817  27.908  27.078  1.00  0.00    +0.000 F 
ENDBRANCH   37   38
BRANCH   54   55
ATOM     65  F10 UNL A   1      43.523  25.662  35.305  1.00  0.00    +0.000 F 
ATOM     55  C38 UNL A   1      44.803  27.525  34.558  1.00  0.00    +0.000 C 
ATOM     56  C39 UNL A   1      46.008  28.237  34.647  1.00  0.00    +0.000 C 
ATOM     57  F6  UNL A   1      46.200  29.334  33.898  1.00  0.00    +0.000 F 
ATOM     58  C40 UNL A   1      47.034  27.806  35.483  1.00  0.00    +0.000 C 
ATOM     59  F7  UNL A   1      48.193  28.480  35.521  1.00  0.00    +0.000 F 
ATOM     60  C41 UNL A   1      46.864  26.676  36.268  1.00  0.00    +0.000 C 
ATOM     61  F8  UNL A   1      47.849  26.270  37.082  1.00  0.00    +0.000 F 
ATOM     62  C42 UNL A   1      45.676  25.965  36.206  1.00  0.00    +0.000 C 
ATOM     63  F9  UNL A   1      45.504  24.880  36.975  1.00  0.00    +0.000 F 
ATOM     64  C43 UNL A   1      44.659  26.375  35.350  1.00  0.00    +0.000 C 
ENDBRANCH   54   55
BRANCH   69   70
ATOM     70  C47 UNL A   1      39.476  31.883  35.692  1.00  0.00    +0.000 C 
ATOM     71  C48 UNL A   1      39.984  33.162  35.953  1.00  0.00    +0.000 C 
ATOM     72  F11 UNL A   1      40.927  33.683  35.155  1.00  0.00    +0.000 F 
ATOM     73  C49 UNL A   1      39.546  33.899  37.052  1.00  0.00    +0.000 C 
ATOM     74  F12 UNL A   1      40.073  35.106  37.298  1.00  0.00    +0.000 F 
ATOM     75  C50 UNL A   1      38.574  33.382  37.894  1.00  0.00    +0.000 C 
ATOM     76  F13 UNL A   1      38.144  34.097  38.943  1.00  0.00    +0.000 F 
ATOM     77  C51 UNL A   1      38.048  32.122  37.649  1.00  0.00    +0.000 C 
ATOM     78  F14 UNL A   1      37.094  31.627  38.449  1.00  0.00    +0.000 F 
ATOM     79  C52 UNL A   1      38.505  31.373  36.567  1.00  0.00    +0.000 C 
ATOM     80  F15 UNL A   1      37.981  30.157  36.354  1.00  0.00    +0.000 F 
ENDBRANCH   69   70
TORSDOF 21
ENDMDL
MODEL 3
REMARK VINA RESULT:     -10.5      4.055      6.399
ROOT
ATOM     33  C23 UNL A   1      41.650  26.495  27.595  1.00  0.00    +0.000 C 
ATOM     34  C24 UNL A   1      43.046  26.802  27.135  1.00  0.00    +0.000 C 
ATOM     35  N5  UNL A   1      43.775  27.867  27.355  1.00  0.00    +0.000 N 
ATOM     36  C25 UNL A   1      44.999  27.618  26.747  1.00  0.00    +0.000 C 
ATOM     37  C26 UNL A   1      46.074  28.437  26.649  1.00  0.00    +0.000 C 
ATOM     49  C33 UNL A   1      46.124  29.776  27.177  1.00  0.00    +0.000 C 
ATOM     50  C34 UNL A   1      47.132  30.715  27.051  1.00  0.00    +0.000 C 
ATOM     51  C35 UNL A   1      46.770  31.847  27.792  1.00  0.00    +0.000 C 
ATOM     52  C36 UNL A   1      45.515  31.632  28.338  1.00  0.00    +0.000 C 
ATOM     53  N6  UNL A   1      45.126  30.361  27.944  1.00  0.00    +0.000 N 
ATOM     54  C37 UNL A   1      44.729  32.516  29.161  1.00  0.00    +0.000 C 
ATOM     66  C44 UNL A   1      43.473  32.255  29.600  1.00  0.00    +0.000 C 
ATOM     67  N7  UNL A   1      42.693  31.126  29.391  1.00  0.00    +0.000 N 
ATOM     68  C45 UNL A   1      41.570  31.342  30.032  1.00  0.00    +0.000 C 
ATOM     69  C46 UNL A   1      40.359  30.456  30.142  1.00  0.00    +0.000 C 
ATOM     81  C53 UNL A   1      40.348  29.271  29.502  1.00  0.00    +0.000 C 
ATOM     82  C54 UNL A   1      39.249  28.310  29.526  1.00  0.00    +0.000 C 
ATOM     83  C55 UNL A   1      39.617  27.209  28.853  1.00  0.00    +0.000 C 
ATOM     84  C56 UNL A   1      40.962  27.405  28.311  1.00  0.00    +0.000 C 
ATOM     85  N8  UNL A   1      41.306  28.669  28.723  1.00  0.00    +0.000 N 
ATOM     86  C57 UNL A   1      41.516  32.632  30.734  1.00  0.00    +0.000 C 
ATOM     87  C58 UNL A   1      42.687  33.162  30.411  1.00  0.00    +0.000 C 
ATOM     88  C59 UNL A   1      44.931  26.283  26.194  1.00  0.00    +0.000 C 
ATOM     89  C60 UNL A   1      43.724  25.760  26.349  1.00  0.00    +0.000 C 
ATOM    119  H25 UNL A   1      47.999  30.603  26.504  1.00  0.00    +0.000 H 
ATOM    120  H26 UNL A   1      47.342  32.697  27.912  1.00  0.00    +0.000 H 
ATOM    121  H27 UNL A   1      44.268  29.936  28.173  1.00  0.00    +0.000 H 
ATOM    122  H28 UNL A   1      38.337  28.453  29.988  1.00  0.00    +0.000 H 
ATOM    123  H29 UNL A   1      39.043  26.359  28.736  1.00  0.00    +0.000 H 
ATOM    124  H30 UNL A   1      42.157  29.102  28.485  1.00  0.00    +0.000 H 
ATOM    125  H31 UNL A   1      40.764  33.021  31.324  1.00  0.00    +0.000 H 
ATOM    126  H32 UNL A   1      42.999  34.102  30.702  1.00  0.00    +0.000 H 
ATOM    127  H33 UNL A   1      45.721  25.801  25.736  1.00  0.00    +0.000 H 
ATOM    128  H34 UNL A   1      43.355  24.858  26.007  1.00  0.00    +0.000 H 
ENDROOT
BRANCH   33   32
ATOM    129  H35 UNL A   1      39.697  25.851  25.879  1.00  0.00    +0.000 H 
ATOM    130  H36 UNL A   1      38.705  23.680  25.452  1.00  0.00    +0.000 H 
ATOM    117  H23 UNL A   1      41.356  21.920  28.202  1.00  0.00    +0.000 H 
ATOM    118  H24 UNL A   1      42.201  24.118  28.788  1.00  0.00    +0.000 H 
ATOM     90  C61 UNL A   1      40.041  25.019  26.384  1.00  0.00    +0.000 C 
ATOM     91  C62 UNL A   1      39.498  23.767  26.106  1.00  0.00    +0.000 C 
ATOM     29  C19 UNL A   1      40.028  22.627  26.718  1.00  0.00    +0.000 C 
ATOM     30  C20 UNL A   1      41.004  22.757  27.710  1.00  0.00    +0.000 C 
ATOM     31  C21 UNL A   1      41.502  24.020  28.037  1.00  0.00    +0.000 C 
ATOM     32  C22 UNL A   1      41.053  25.158  27.346  1.00  0.00    +0.000 C 
BRANCH   29   27
ATOM     27  C18 UNL A   1      39.567  21.270  26.348  1.00  0.00    +0.000 C 
ATOM     28  O5  UNL A   1      40.112  20.289  26.844  1.00  0.00    +0.000 O 
BRANCH   27   26
ATOM     26  N4  UNL A   1      38.555  21.105  25.435  1.00  0.00    +0.000 N 
ATOM    116  H22 UNL A   1      38.840  20.780  24.549  1.00  0.00    +0.000 H 
BRANCH   26   25
ATOM     25  C17 UNL A   1      37.128  21.336  25.576  1.00  0.00    +0.000 C 
ATOM    114  H20 UNL A   1      36.627  20.391  25.572  1.00  0.00    +0.000 H 
ATOM    115  H21 UNL A   1      36.978  21.863  26.495  1.00  0.00    +0.000 H 
BRANCH   25   24
ATOM    113  H19 UNL A   1      35.744  21.629  24.042  1.00  0.00    +0.000 H 
ATOM    112  H18 UNL A   1      37.342  22.403  23.764  1.00  0.00    +0.000 H 
ATOM     24  C16 UNL A   1      36.552  22.196  24.456  1.00  0.00    +0.000 C 
BRANCH   24   23
ATOM    111  H17 UNL A   1      36.734  24.245  24.798  1.00  0.00    +0.000 H 
ATOM    110  H16 UNL A   1      35.552  23.413  25.871  1.00  0.00    +0.000 H 
ATOM     23  C15 UNL A   1      35.941  23.533  24.881  1.00  0.00    +0.000 C 
BRANCH   23   22
ATOM    108  H14 UNL A   1      33.906  24.022  24.566  1.00  0.00    +0.000 H 
ATOM    109  H15 UNL A   1      35.115  25.073  23.744  1.00  0.00    +0.000 H 
ATOM     22  C14 UNL A   1      34.814  24.080  24.003  1.00  0.00    +0.000 C 
BRANCH   22   21
ATOM    106  H12 UNL A   1      35.164  23.874  21.928  1.00  0.00    +0.000 H 
ATOM    107  H13 UNL A   1      34.852  22.352  22.844  1.00  0.00    +0.000 H 
ATOM     21  C13 UNL A   1      34.578  23.372  22.670  1.00  0.00    +0.000 C 
BRANCH   21   20
ATOM    105  H11 UNL A   1      33.170  23.607  21.134  1.00  0.00    +0.000 H 
ATOM     20  C12 UNL A   1      33.142  23.318  22.164  1.00  0.00    +0.000 C 
ATOM    104  H10 UNL A   1      32.551  23.976  22.766  1.00  0.00    +0.000 H 
BRANCH   20   19
ATOM     19  N3  UNL A   1      32.538  21.997  22.208  1.00  0.00    +0.000 N 
ATOM    103  H9  UNL A   1      32.254  21.647  21.333  1.00  0.00    +0.000 H 
BRANCH   19   17
ATOM     17  C11 UNL A   1      32.297  21.154  23.269  1.00  0.00    +0.000 C 
ATOM     18  O4  UNL A   1      32.075  19.961  23.048  1.00  0.00    +0.000 O 
BRANCH   17   16
ATOM    131  H37 UNL A   1      30.880  23.067  24.607  1.00  0.00    +0.000 H 
ATOM    100  H6  UNL A   1      33.018  22.966  28.226  1.00  0.00    +0.000 H 
ATOM    101  H7  UNL A   1      34.108  20.913  27.499  1.00  0.00    +0.000 H 
ATOM     11  C6  UNL A   1      31.930  23.213  26.432  1.00  0.00    +0.000 C 
ATOM     12  C7  UNL A   1      32.830  22.581  27.288  1.00  0.00    +0.000 C 
ATOM     13  C8  UNL A   1      33.476  21.419  26.859  1.00  0.00    +0.000 C 
ATOM     14  C9  UNL A   1      33.265  20.940  25.564  1.00  0.00    +0.000 C 
ATOM     16  C10 UNL A   1      32.384  21.594  24.687  1.00  0.00    +0.000 C 
ATOM     92  C63 UNL A   1      31.643  22.670  25.176  1.00  0.00    +0.000 C 
BRANCH   11   10
ATOM     10  C5  UNL A   1      31.396  24.549  26.772  1.00  0.00    +0.000 C 
ATOM     99  H5  UNL A   1      30.537  24.635  27.337  1.00  0.00    +0.000 H 
BRANCH   10    9
ATOM      9  N2  UNL A   1      32.010  25.613  26.359  1.00  0.00    +0.000 N 
BRANCH    9    8
ATOM     97  H3  UNL A   1      31.532  29.707  24.517  1.00  0.00    +0.000 H 
ATOM     98  H4  UNL A   1      32.627  28.097  25.966  1.00  0.00    +0.000 H 
ATOM    132  H38 UNL A   1      29.945  25.119  24.709  1.00  0.00    +0.000 H 
ATOM    133  H39 UNL A   1      28.852  26.716  23.243  1.00  0.00    +0.000 H 
ATOM      6  C2  UNL A   1      31.198  28.731  24.553  1.00  0.00    +0.000 C 
ATOM      5  C1  UNL A   1      30.111  28.329  23.775  1.00  0.00    +0.000 C 
ATOM      7  C3  UNL A   1      31.829  27.800  25.383  1.00  0.00    +0.000 C 
ATOM      8  C4  UNL A   1      31.396  26.470  25.436  1.00  0.00    +0.000 C 
ATOM     93  C64 UNL A   1      30.292  26.089  24.661  1.00  0.00    +0.000 C 
ATOM     94  C65 UNL A   1      29.654  27.010  23.823  1.00  0.00    +0.000 C 
BRANCH    5    2
ATOM      2  S1  UNL A   1      29.315  29.501  22.716  1.00  0.00    +0.000 S 
ATOM      3  O1  UNL A   1      27.967  29.063  22.452  1.00  0.00    +0.000 O 
ATOM      4  O2  UNL A   1      30.238  29.869  21.666  1.00  0.00    +0.000 O 
BRANCH    2    1
ATOM      1  N1  UNL A   1      29.159  30.851  23.706  1.00  0.00    +0.000 N 
ATOM     95  H1  UNL A   1      29.602  30.665  24.605  1.00  0.00    +0.000 H 
ATOM     96  H2  UNL A   1      28.170  31.055  23.848  1.00  0.00    +0.000 H 
ENDBRANCH    2    1
ENDBRANCH    5    2
ENDBRANCH    9    8
ENDBRANCH   10    9
ENDBRANCH   11   10
BRANCH   14   15
ATOM    102  H8  UNL A   1      34.529  19.402  25.837  1.00  0.00    +0.000 H 
ATOM     15  O3  UNL A   1      33.976  19.823  25.209  1.00  0.00    +0.000 O 
ENDBRANCH   14   15
ENDBRANCH   17   16
ENDBRANCH   19   17
ENDBRANCH   20   19
ENDBRANCH   21   20
ENDBRANCH   22   21
ENDBRANCH   23   22
ENDBRANCH   24   23
ENDBRANCH   25   24
ENDBRANCH   26   25
ENDBRANCH   27   26
ENDBRANCH   29   27
ENDBRANCH   33   32
BRANCH   37   38
ATOM     38  C27 UNL A   1      47.292  27.904  25.951  1.00  0.00    +0.000 C 
ATOM     39  C28 UNL A   1      47.380  27.844  24.553  1.00  0.00    +0.000 C 
ATOM     40  F1  UNL A   1      46.343  28.234  23.794  1.00  0.00    +0.000 F 
ATOM     41  C29 UNL A   1      48.518  27.342  23.925  1.00  0.00    +0.000 C 
ATOM     42  F2  UNL A   1      48.555  27.244  22.589  1.00  0.00    +0.000 F 
ATOM     43  C30 UNL A   1      49.604  26.928  24.681  1.00  0.00    +0.000 C 
ATOM     44  F3  UNL A   1      50.699  26.448  24.076  1.00  0.00    +0.000 F 
ATOM     45  C31 UNL A   1      49.551  27.002  26.064  1.00  0.00    +0.000 C 
ATOM     46  F4  UNL A   1      50.604  26.615  26.796  1.00  0.00    +0.000 F 
ATOM     47  C32 UNL A   1      48.402  27.474  26.695  1.00  0.00    +0.000 C 
ATOM     48  F5  UNL A   1      48.375  27.515  28.036  1.00  0.00    +0.000 F 
ENDBRANCH   37   38
BRANCH   54   55
ATOM     65  F10 UNL A   1      46.284  32.880  31.520  1.00  0.00    +0.000 F 
ATOM     55  C38 UNL A   1      45.337  33.830  29.554  1.00  0.00    +0.000 C 
ATOM     56  C39 UNL A   1      45.145  34.984  28.779  1.00  0.00    +0.000 C 
ATOM     57  F6  UNL A   1      44.460  34.916  27.627  1.00  0.00    +0.000 F 
ATOM     58  C40 UNL A   1      45.684  36.206  29.169  1.00  0.00    +0.000 C 
ATOM     59  F7  UNL A   1      45.521  37.287  28.392  1.00  0.00    +0.000 F 
ATOM     60  C41 UNL A   1      46.397  36.307  30.355  1.00  0.00    +0.000 C 
ATOM     61  F8  UNL A   1      46.903  37.488  30.735  1.00  0.00    +0.000 F 
ATOM     62  C42 UNL A   1      46.587  35.182  31.142  1.00  0.00    +0.000 C 
ATOM     63  F9  UNL A   1      47.264  35.280  32.296  1.00  0.00    +0.000 F 
ATOM     64  C43 UNL A   1      46.076  33.952  30.741  1.00  0.00    +0.000 C 
ENDBRANCH   54   55
BRANCH   69   70
ATOM     70  C47 UNL A   1      39.177  30.869  30.944  1.00  0.00    +0.000 C 
ATOM     71  C48 UNL A   1      38.108  31.556  30.354  1.00  0.00    +0.000 C 
ATOM     72  F11 UNL A   1      38.161  31.884  29.054  1.00  0.00    +0.000 F 
ATOM     73  C49 UNL A   1      36.994  31.931  31.101  1.00  0.00    +0.000 C 
ATOM     74  F12 UNL A   1      36.001  32.616  30.519  1.00  0.00    +0.000 F 
ATOM     75  C50 UNL A   1      36.916  31.606  32.446  1.00  0.00    +0.000 C 
ATOM     76  F13 UNL A   1      35.838  31.956  33.161  1.00  0.00    +0.000 F 
ATOM     77  C51 UNL A   1      37.958  30.917  33.051  1.00  0.00    +0.000 C 
ATOM     78  F14 UNL A   1      37.878  30.583  34.346  1.00  0.00    +0.000 F 
ATOM     79  C52 UNL A   1      39.084  30.565  32.310  1.00  0.00    +0.000 C 
ATOM     80  F15 UNL A   1      40.078  29.901  32.920  1.00  0.00    +0.000 F 
ENDBRANCH   69   70
TORSDOF 21
ENDMDL
MODEL 4
REMARK VINA RESULT:     -10.5     20.643     26.614
ROOT
ATOM     33  C23 UNL A   1      52.630  20.536  11.492  1.00  0.00    +0.000 C 
ATOM     34  C24 UNL A   1      52.499  21.073  12.888  1.00  0.00    +0.000 C 
ATOM     35  N5  UNL A   1      53.380  21.084  13.857  1.00  0.00    +0.000 N 
ATOM     36  C25 UNL A   1      52.768  21.739  14.917  1.00  0.00    +0.000 C 
ATOM     37  C26 UNL A   1      53.249  21.959  16.165  1.00  0.00    +0.000 C 
ATOM     49  C33 UNL A   1      54.540  21.516  16.624  1.00  0.00    +0.000 C 
ATOM     50  C34 UNL A   1      55.081  21.610  17.895  1.00  0.00    +0.000 C 
ATOM     51  C35 UNL A   1      56.388  21.111  17.851  1.00  0.00    +0.000 C 
ATOM     52  C36 UNL A   1      56.644  20.660  16.566  1.00  0.00    +0.000 C 
ATOM     53  N6  UNL A   1      55.497  20.905  15.827  1.00  0.00    +0.000 N 
ATOM     54  C37 UNL A   1      57.844  20.055  16.048  1.00  0.00    +0.000 C 
ATOM     66  C44 UNL A   1      57.990  19.575  14.787  1.00  0.00    +0.000 C 
ATOM     67  N7  UNL A   1      57.074  19.572  13.745  1.00  0.00    +0.000 N 
ATOM     68  C45 UNL A   1      57.689  19.018  12.728  1.00  0.00    +0.000 C 
ATOM     69  C46 UNL A   1      57.171  18.750  11.341  1.00  0.00    +0.000 C 
ATOM     81  C53 UNL A   1      55.901  19.079  11.036  1.00  0.00    +0.000 C 
ATOM     82  C54 UNL A   1      55.270  18.885   9.734  1.00  0.00    +0.000 C 
ATOM     83  C55 UNL A   1      54.033  19.405   9.768  1.00  0.00    +0.000 C 
ATOM     84  C56 UNL A   1      53.768  19.928  11.108  1.00  0.00    +0.000 C 
ATOM     85  N8  UNL A   1      54.924  19.666  11.802  1.00  0.00    +0.000 N 
ATOM     86  C57 UNL A   1      59.075  18.619  13.009  1.00  0.00    +0.000 C 
ATOM     87  C58 UNL A   1      59.197  18.951  14.286  1.00  0.00    +0.000 C 
ATOM     88  C59 UNL A   1      51.461  22.156  14.456  1.00  0.00    +0.000 C 
ATOM     89  C60 UNL A   1      51.220  21.712  13.232  1.00  0.00    +0.000 C 
ATOM    119  H25 UNL A   1      54.604  21.981  18.730  1.00  0.00    +0.000 H 
ATOM    120  H26 UNL A   1      57.051  21.085  18.642  1.00  0.00    +0.000 H 
ATOM    121  H27 UNL A   1      55.378  20.679  14.876  1.00  0.00    +0.000 H 
ATOM    122  H28 UNL A   1      55.705  18.424   8.920  1.00  0.00    +0.000 H 
ATOM    123  H29 UNL A   1      53.373  19.431   8.974  1.00  0.00    +0.000 H 
ATOM    124  H30 UNL A   1      55.041  19.879  12.756  1.00  0.00    +0.000 H 
ATOM    125  H31 UNL A   1      59.771  18.193  12.376  1.00  0.00    +0.000 H 
ATOM    126  H32 UNL A   1      60.044  18.785  14.851  1.00  0.00    +0.000 H 
ATOM    127  H33 UNL A   1      50.801  22.724  15.011  1.00  0.00    +0.000 H 
ATOM    128  H34 UNL A   1      50.360  21.794  12.666  1.00  0.00    +0.000 H 
ENDROOT
BRANCH   33   32
ATOM    129  H35 UNL A   1      52.251  22.647   9.887  1.00  0.00    +0.000 H 
ATOM    130  H36 UNL A   1      50.493  23.023   8.261  1.00  0.00    +0.000 H 
ATOM    117  H23 UNL A   1      48.884  19.233   9.114  1.00  0.00    +0.000 H 
ATOM    118  H24 UNL A   1      50.512  18.945  10.891  1.00  0.00    +0.000 H 
ATOM     90  C61 UNL A   1      51.529  21.926   9.735  1.00  0.00    +0.000 C 
ATOM     91  C62 UNL A   1      50.543  22.128   8.770  1.00  0.00    +0.000 C 
ATOM     29  C19 UNL A   1      49.622  21.113   8.495  1.00  0.00    +0.000 C 
ATOM     30  C20 UNL A   1      49.599  19.958   9.281  1.00  0.00    +0.000 C 
ATOM     31  C21 UNL A   1      50.546  19.785  10.293  1.00  0.00    +0.000 C 
ATOM     32  C22 UNL A   1      51.545  20.751  10.500  1.00  0.00    +0.000 C 
BRANCH   29   27
ATOM     27  C18 UNL A   1      48.648  21.238   7.387  1.00  0.00    +0.000 C 
ATOM     28  O5  UNL A   1      48.105  22.319   7.177  1.00  0.00    +0.000 O 
BRANCH   27   26
ATOM     26  N4  UNL A   1      48.330  20.148   6.616  1.00  0.00    +0.000 N 
ATOM    116  H22 UNL A   1      47.738  19.489   7.047  1.00  0.00    +0.000 H 
BRANCH   26   25
ATOM     25  C17 UNL A   1      48.732  19.819   5.258  1.00  0.00    +0.000 C 
ATOM    114  H20 UNL A   1      47.873  19.477   4.722  1.00  0.00    +0.000 H 
ATOM    115  H21 UNL A   1      49.147  20.705   4.824  1.00  0.00    +0.000 H 
BRANCH   25   24
ATOM    113  H19 UNL A   1      50.148  18.721   4.190  1.00  0.00    +0.000 H 
ATOM    112  H18 UNL A   1      49.359  17.819   5.529  1.00  0.00    +0.000 H 
ATOM     24  C16 UNL A   1      49.804  18.736   5.204  1.00  0.00    +0.000 C 
BRANCH   24   23
ATOM    111  H17 UNL A   1      51.307  18.024   6.462  1.00  0.00    +0.000 H 
ATOM    110  H16 UNL A   1      50.805  19.722   6.787  1.00  0.00    +0.000 H 
ATOM     23  C15 UNL A   1      51.050  18.980   6.056  1.00  0.00    +0.000 C 
BRANCH   23   22
ATOM    108  H14 UNL A   1      52.507  18.749   4.538  1.00  0.00    +0.000 H 
ATOM    109  H15 UNL A   1      52.073  20.441   4.976  1.00  0.00    +0.000 H 
ATOM     22  C14 UNL A   1      52.303  19.454   5.317  1.00  0.00    +0.000 C 
BRANCH   22   21
ATOM    106  H12 UNL A   1      54.025  20.539   5.888  1.00  0.00    +0.000 H 
ATOM    107  H13 UNL A   1      53.253  19.531   7.167  1.00  0.00    +0.000 H 
ATOM     21  C13 UNL A   1      53.575  19.604   6.150  1.00  0.00    +0.000 C 
BRANCH   21   20
ATOM    105  H11 UNL A   1      54.504  17.842   6.805  1.00  0.00    +0.000 H 
ATOM     20  C12 UNL A   1      54.634  18.522   5.988  1.00  0.00    +0.000 C 
ATOM    104  H10 UNL A   1      55.596  18.992   5.986  1.00  0.00    +0.000 H 
BRANCH   20   19
ATOM     19  N3  UNL A   1      54.510  17.736   4.772  1.00  0.00    +0.000 N 
ATOM    103  H9  UNL A   1      54.585  18.256   3.939  1.00  0.00    +0.000 H 
BRANCH   19   17
ATOM     17  C11 UNL A   1      54.305  16.387   4.590  1.00  0.00    +0.000 C 
ATOM     18  O4  UNL A   1      55.165  15.593   4.978  1.00  0.00    +0.000 O 
BRANCH   17   16
ATOM    131  H37 UNL A   1      51.746  16.526   5.535  1.00  0.00    +0.000 H 
ATOM    100  H6  UNL A   1      49.941  13.953   2.742  1.00  0.00    +0.000 H 
ATOM    101  H7  UNL A   1      51.966  14.036   1.391  1.00  0.00    +0.000 H 
ATOM     11  C6  UNL A   1      50.728  15.167   4.282  1.00  0.00    +0.000 C 
ATOM     12  C7  UNL A   1      50.767  14.477   3.072  1.00  0.00    +0.000 C 
ATOM     13  C8  UNL A   1      51.938  14.503   2.311  1.00  0.00    +0.000 C 
ATOM     14  C9  UNL A   1      53.071  15.161   2.795  1.00  0.00    +0.000 C 
ATOM     16  C10 UNL A   1      53.045  15.829   4.030  1.00  0.00    +0.000 C 
ATOM     92  C63 UNL A   1      51.831  15.912   4.711  1.00  0.00    +0.000 C 
BRANCH   11   10
ATOM     10  C5  UNL A   1      49.585  14.987   5.203  1.00  0.00    +0.000 C 
ATOM     99  H5  UNL A   1      49.723  15.073   6.223  1.00  0.00    +0.000 H 
BRANCH   10    9
ATOM      9  N2  UNL A   1      48.410  14.720   4.727  1.00  0.00    +0.000 N 
BRANCH    9    8
ATOM     97  H3  UNL A   1      46.555  17.762   1.954  1.00  0.00    +0.000 H 
ATOM     98  H4  UNL A   1      47.994  15.870   2.444  1.00  0.00    +0.000 H 
ATOM    132  H38 UNL A   1      46.798  15.985   6.469  1.00  0.00    +0.000 H 
ATOM    133  H39 UNL A   1      45.342  17.867   5.987  1.00  0.00    +0.000 H 
ATOM      6  C2  UNL A   1      46.602  17.382   2.912  1.00  0.00    +0.000 C 
ATOM      5  C1  UNL A   1      45.844  17.954   3.935  1.00  0.00    +0.000 C 
ATOM      7  C3  UNL A   1      47.426  16.288   3.197  1.00  0.00    +0.000 C 
ATOM      8  C4  UNL A   1      47.494  15.753   4.489  1.00  0.00    +0.000 C 
ATOM     93  C64 UNL A   1      46.739  16.352   5.507  1.00  0.00    +0.000 C 
ATOM     94  C65 UNL A   1      45.907  17.443   5.234  1.00  0.00    +0.000 C 
BRANCH    5    2
ATOM      2  S1  UNL A   1      44.793  19.330   3.578  1.00  0.00    +0.000 S 
ATOM      3  O1  UNL A   1      45.309  20.505   4.234  1.00  0.00    +0.000 O 
ATOM      4  O2  UNL A   1      43.419  18.901   3.708  1.00  0.00    +0.000 O 
BRANCH    2    1
ATOM      1  N1  UNL A   1      45.058  19.584   1.937  1.00  0.00    +0.000 N 
ATOM     95  H1  UNL A   1      45.449  18.739   1.521  1.00  0.00    +0.000 H 
ATOM     96  H2  UNL A   1      45.710  20.358   1.814  1.00  0.00    +0.000 H 
ENDBRANCH    2    1
ENDBRANCH    5    2
ENDBRANCH    9    8
ENDBRANCH   10    9
ENDBRANCH   11   10
BRANCH   14   15
ATOM    102  H8  UNL A   1      54.805  15.801   2.007  1.00  0.00    +0.000 H 
ATOM     15  O3  UNL A   1      54.191  15.094   2.008  1.00  0.00    +0.000 O 
ENDBRANCH   14   15
ENDBRANCH   17   16
ENDBRANCH   19   17
ENDBRANCH   20   19
ENDBRANCH   21   20
ENDBRANCH   22   21
ENDBRANCH   23   22
ENDBRANCH   24   23
ENDBRANCH   25   24
ENDBRANCH   26   25
ENDBRANCH   27   26
ENDBRANCH   29   27
ENDBRANCH   33   32
BRANCH   37   38
ATOM     38  C27 UNL A   1      52.378  22.723  17.120  1.00  0.00    +0.000 C 
ATOM     39  C28 UNL A   1      51.562  22.076  18.059  1.00  0.00    +0.000 C 
ATOM     40  F1  UNL A   1      51.511  20.735  18.100  1.00  0.00    +0.000 F 
ATOM     41  C29 UNL A   1      50.759  22.804  18.935  1.00  0.00    +0.000 C 
ATOM     42  F2  UNL A   1      49.945  22.162  19.785  1.00  0.00    +0.000 F 
ATOM     43  C30 UNL A   1      50.786  24.190  18.916  1.00  0.00    +0.000 C 
ATOM     44  F3  UNL A   1      50.016  24.889  19.760  1.00  0.00    +0.000 F 
ATOM     45  C31 UNL A   1      51.606  24.852  18.014  1.00  0.00    +0.000 C 
ATOM     46  F4  UNL A   1      51.644  26.191  18.002  1.00  0.00    +0.000 F 
ATOM     47  C32 UNL A   1      52.386  24.127  17.116  1.00  0.00    +0.000 C 
ATOM     48  F5  UNL A   1      53.154  24.797  16.244  1.00  0.00    +0.000 F 
ENDBRANCH   37   38
BRANCH   54   55
ATOM     65  F10 UNL A   1      58.542  17.636  17.381  1.00  0.00    +0.000 F 
ATOM     55  C38 UNL A   1      59.020  19.932  16.972  1.00  0.00    +0.000 C 
ATOM     56  C39 UNL A   1      59.841  21.032  17.258  1.00  0.00    +0.000 C 
ATOM     57  F6  UNL A   1      59.624  22.211  16.654  1.00  0.00    +0.000 F 
ATOM     58  C40 UNL A   1      60.910  20.917  18.143  1.00  0.00    +0.000 C 
ATOM     59  F7  UNL A   1      61.705  21.973  18.371  1.00  0.00    +0.000 F 
ATOM     60  C41 UNL A   1      61.159  19.712  18.782  1.00  0.00    +0.000 C 
ATOM     61  F8  UNL A   1      62.180  19.607  19.643  1.00  0.00    +0.000 F 
ATOM     62  C42 UNL A   1      60.352  18.615  18.523  1.00  0.00    +0.000 C 
ATOM     63  F9  UNL A   1      60.582  17.453  19.150  1.00  0.00    +0.000 F 
ATOM     64  C43 UNL A   1      59.301  18.717  17.617  1.00  0.00    +0.000 C 
ENDBRANCH   54   55
BRANCH   69   70
ATOM     70  C47 UNL A   1      58.038  18.129  10.306  1.00  0.00    +0.000 C 
ATOM     71  C48 UNL A   1      58.087  16.738  10.145  1.00  0.00    +0.000 C 
ATOM     72  F11 UNL A   1      57.375  15.945  10.959  1.00  0.00    +0.000 F 
ATOM     73  C49 UNL A   1      58.889  16.155   9.166  1.00  0.00    +0.000 C 
ATOM     74  F12 UNL A   1      58.943  14.821   9.056  1.00  0.00    +0.000 F 
ATOM     75  C50 UNL A   1      59.637  16.952   8.313  1.00  0.00    +0.000 C 
ATOM     76  F13 UNL A   1      60.397  16.390   7.363  1.00  0.00    +0.000 F 
ATOM     77  C51 UNL A   1      59.596  18.332   8.446  1.00  0.00    +0.000 C 
ATOM     78  F14 UNL A   1      60.302  19.107   7.611  1.00  0.00    +0.000 F 
ATOM     79  C52 UNL A   1      58.816  18.914   9.442  1.00  0.00    +0.000 C 
ATOM     80  F15 UNL A   1      58.797  20.252   9.550  1.00  0.00    +0.000 F 
ENDBRANCH   69   70
TORSDOF 21
ENDMDL
MODEL 5
REMARK VINA RESULT:     -10.4     37.186     42.774
ROOT
ATOM     33  C23 UNL A   1      14.066  53.818   5.251  1.00  0.00    +0.000 C 
ATOM     34  C24 UNL A   1      14.988  54.294   4.165  1.00  0.00    +0.000 C 
ATOM     35  N5  UNL A   1      15.493  53.628   3.157  1.00  0.00    +0.000 N 
ATOM     36  C25 UNL A   1      16.237  54.549   2.431  1.00  0.00    +0.000 C 
ATOM     37  C26 UNL A   1      16.996  54.339   1.328  1.00  0.00    +0.000 C 
ATOM     49  C33 UNL A   1      17.174  53.056   0.700  1.00  0.00    +0.000 C 
ATOM     50  C34 UNL A   1      17.993  52.724  -0.365  1.00  0.00    +0.000 C 
ATOM     51  C35 UNL A   1      17.782  51.375  -0.675  1.00  0.00    +0.000 C 
ATOM     52  C36 UNL A   1      16.870  50.854   0.228  1.00  0.00    +0.000 C 
ATOM     53  N6  UNL A   1      16.513  51.894   1.072  1.00  0.00    +0.000 N 
ATOM     54  C37 UNL A   1      16.357  49.511   0.313  1.00  0.00    +0.000 C 
ATOM     66  C44 UNL A   1      15.513  49.061   1.276  1.00  0.00    +0.000 C 
ATOM     67  N7  UNL A   1      14.955  49.757   2.339  1.00  0.00    +0.000 N 
ATOM     68  C45 UNL A   1      14.197  48.896   2.973  1.00  0.00    +0.000 C 
ATOM     69  C46 UNL A   1      13.359  49.101   4.206  1.00  0.00    +0.000 C 
ATOM     81  C53 UNL A   1      13.356  50.306   4.808  1.00  0.00    +0.000 C 
ATOM     82  C54 UNL A   1      12.588  50.650   6.001  1.00  0.00    +0.000 C 
ATOM     83  C55 UNL A   1      12.758  51.954   6.269  1.00  0.00    +0.000 C 
ATOM     84  C56 UNL A   1      13.684  52.528   5.292  1.00  0.00    +0.000 C 
ATOM     85  N8  UNL A   1      14.008  51.469   4.479  1.00  0.00    +0.000 N 
ATOM     86  C57 UNL A   1      14.177  47.555   2.372  1.00  0.00    +0.000 C 
ATOM     87  C58 UNL A   1      15.021  47.702   1.360  1.00  0.00    +0.000 C 
ATOM     88  C59 UNL A   1      16.076  55.830   3.085  1.00  0.00    +0.000 C 
ATOM     89  C60 UNL A   1      15.367  55.714   4.198  1.00  0.00    +0.000 C 
ATOM    119  H25 UNL A   1      18.648  53.359  -0.846  1.00  0.00    +0.000 H 
ATOM    120  H26 UNL A   1      18.229  50.857  -1.448  1.00  0.00    +0.000 H 
ATOM    121  H27 UNL A   1      15.884  51.820   1.826  1.00  0.00    +0.000 H 
ATOM    122  H28 UNL A   1      12.007  49.996   6.549  1.00  0.00    +0.000 H 
ATOM    123  H29 UNL A   1      12.307  52.470   7.041  1.00  0.00    +0.000 H 
ATOM    124  H30 UNL A   1      14.647  51.537   3.733  1.00  0.00    +0.000 H 
ATOM    125  H31 UNL A   1      13.645  46.719   2.662  1.00  0.00    +0.000 H 
ATOM    126  H32 UNL A   1      15.292  46.943   0.715  1.00  0.00    +0.000 H 
ATOM    127  H33 UNL A   1      16.465  56.718   2.731  1.00  0.00    +0.000 H 
ATOM    128  H34 UNL A   1      15.140  56.432   4.904  1.00  0.00    +0.000 H 
ENDROOT
BRANCH   33   32
ATOM    129  H35 UNL A   1      15.158  54.687   7.537  1.00  0.00    +0.000 H 
ATOM    130  H36 UNL A   1      14.257  56.255   9.151  1.00  0.00    +0.000 H 
ATOM    117  H23 UNL A   1      10.865  56.811   6.728  1.00  0.00    +0.000 H 
ATOM    118  H24 UNL A   1      11.663  55.084   5.221  1.00  0.00    +0.000 H 
ATOM     90  C61 UNL A   1      14.239  55.126   7.370  1.00  0.00    +0.000 C 
ATOM     91  C62 UNL A   1      13.743  56.058   8.279  1.00  0.00    +0.000 C 
ATOM     29  C19 UNL A   1      12.545  56.725   8.006  1.00  0.00    +0.000 C 
ATOM     30  C20 UNL A   1      11.777  56.357   6.898  1.00  0.00    +0.000 C 
ATOM     31  C21 UNL A   1      12.243  55.375   6.022  1.00  0.00    +0.000 C 
ATOM     32  C22 UNL A   1      13.499  54.780   6.229  1.00  0.00    +0.000 C 
BRANCH   29   27
ATOM     27  C18 UNL A   1      12.055  57.815   8.880  1.00  0.00    +0.000 C 
ATOM     28  O5  UNL A   1      12.322  58.981   8.602  1.00  0.00    +0.000 O 
BRANCH   27   26
ATOM     26  N4  UNL A   1      11.331  57.528  10.010  1.00  0.00    +0.000 N 
ATOM    116  H22 UNL A   1      11.753  57.800  10.858  1.00  0.00    +0.000 H 
BRANCH   26   25
ATOM     25  C17 UNL A   1      10.035  56.884  10.146  1.00  0.00    +0.000 C 
ATOM    114  H20 UNL A   1       9.573  57.233  11.045  1.00  0.00    +0.000 H 
ATOM    115  H21 UNL A   1       9.461  57.134   9.278  1.00  0.00    +0.000 H 
BRANCH   25   24
ATOM    113  H19 UNL A   1      10.272  55.041   9.196  1.00  0.00    +0.000 H 
ATOM    112  H18 UNL A   1       9.236  54.997  10.664  1.00  0.00    +0.000 H 
ATOM     24  C16 UNL A   1      10.132  55.363  10.208  1.00  0.00    +0.000 C 
BRANCH   24   23
ATOM    111  H17 UNL A   1      11.037  54.857  12.017  1.00  0.00    +0.000 H 
ATOM    110  H16 UNL A   1      12.184  55.373  10.728  1.00  0.00    +0.000 H 
ATOM     23  C15 UNL A   1      11.321  54.797  10.987  1.00  0.00    +0.000 C 
BRANCH   23   22
ATOM    108  H14 UNL A   1      11.638  52.828  11.695  1.00  0.00    +0.000 H 
ATOM    109  H15 UNL A   1      10.925  52.978  10.048  1.00  0.00    +0.000 H 
ATOM     22  C14 UNL A   1      11.657  53.323  10.746  1.00  0.00    +0.000 C 
BRANCH   22   21
ATOM    106  H12 UNL A   1      13.040  51.978   9.883  1.00  0.00    +0.000 H 
ATOM    107  H13 UNL A   1      13.046  53.659   9.233  1.00  0.00    +0.000 H 
ATOM     21  C13 UNL A   1      13.007  53.026  10.095  1.00  0.00    +0.000 C 
BRANCH   21   20
ATOM    105  H11 UNL A   1      14.186  54.417  11.130  1.00  0.00    +0.000 H 
ATOM     20  C12 UNL A   1      14.251  53.373  10.901  1.00  0.00    +0.000 C 
ATOM    104  H10 UNL A   1      15.111  53.127  10.313  1.00  0.00    +0.000 H 
BRANCH   20   19
ATOM     19  N3  UNL A   1      14.356  52.677  12.173  1.00  0.00    +0.000 N 
ATOM    103  H9  UNL A   1      13.948  53.149  12.934  1.00  0.00    +0.000 H 
BRANCH   19   17
ATOM     17  C11 UNL A   1      14.933  51.467  12.490  1.00  0.00    +0.000 C 
ATOM     18  O4  UNL A   1      15.057  51.157  13.677  1.00  0.00    +0.000 O 
BRANCH   17   16
ATOM    131  H37 UNL A   1      13.392  49.811  10.959  1.00  0.00    +0.000 H 
ATOM    100  H6  UNL A   1      16.491  47.593   9.182  1.00  0.00    +0.000 H 
ATOM    101  H7  UNL A   1      18.101  49.222  10.010  1.00  0.00    +0.000 H 
ATOM     11  C6  UNL A   1      14.830  48.539  10.083  1.00  0.00    +0.000 C 
ATOM     12  C7  UNL A   1      16.180  48.380   9.772  1.00  0.00    +0.000 C 
ATOM     13  C8  UNL A   1      17.106  49.299  10.271  1.00  0.00    +0.000 C 
ATOM     14  C9  UNL A   1      16.684  50.324  11.122  1.00  0.00    +0.000 C 
ATOM     16  C10 UNL A   1      15.330  50.467  11.464  1.00  0.00    +0.000 C 
ATOM     92  C63 UNL A   1      14.401  49.628  10.849  1.00  0.00    +0.000 C 
BRANCH   11   10
ATOM     10  C5  UNL A   1      13.861  47.473   9.749  1.00  0.00    +0.000 C 
ATOM     99  H5  UNL A   1      14.074  46.796   9.000  1.00  0.00    +0.000 H 
BRANCH   10    9
ATOM      9  N2  UNL A   1      12.745  47.390  10.401  1.00  0.00    +0.000 N 
BRANCH    9    8
ATOM     97  H3  UNL A   1       8.639  45.917   9.237  1.00  0.00    +0.000 H 
ATOM     98  H4  UNL A   1      10.727  45.768  10.465  1.00  0.00    +0.000 H 
ATOM    132  H38 UNL A   1      12.003  49.390   8.763  1.00  0.00    +0.000 H 
ATOM    133  H39 UNL A   1       9.911  49.558   7.542  1.00  0.00    +0.000 H 
ATOM      6  C2  UNL A   1       9.351  46.658   9.140  1.00  0.00    +0.000 C 
ATOM      5  C1  UNL A   1       9.123  47.748   8.299  1.00  0.00    +0.000 C 
ATOM      7  C3  UNL A   1      10.553  46.578   9.850  1.00  0.00    +0.000 C 
ATOM      8  C4  UNL A   1      11.525  47.579   9.738  1.00  0.00    +0.000 C 
ATOM     93  C64 UNL A   1      11.285  48.657   8.875  1.00  0.00    +0.000 C 
ATOM     94  C65 UNL A   1      10.085  48.752   8.163  1.00  0.00    +0.000 C 
BRANCH    5    2
ATOM      2  S1  UNL A   1       7.600  47.859   7.406  1.00  0.00    +0.000 S 
ATOM      3  O1  UNL A   1       7.822  48.574   6.174  1.00  0.00    +0.000 O 
ATOM      4  O2  UNL A   1       6.550  48.210   8.336  1.00  0.00    +0.000 O 
BRANCH    2    1
ATOM      1  N1  UNL A   1       7.319  46.265   6.952  1.00  0.00    +0.000 N 
ATOM     95  H1  UNL A   1       7.452  46.170   5.945  1.00  0.00    +0.000 H 
ATOM     96  H2  UNL A   1       6.363  46.006   7.194  1.00  0.00    +0.000 H 
ENDBRANCH    2    1
ENDBRANCH    5    2
ENDBRANCH    9    8
ENDBRANCH   10    9
ENDBRANCH   11   10
BRANCH   14   15
ATOM    102  H8  UNL A   1      17.434  51.946  12.042  1.00  0.00    +0.000 H 
ATOM     15  O3  UNL A   1      17.665  51.150  11.605  1.00  0.00    +0.000 O 
ENDBRANCH   14   15
ENDBRANCH   17   16
ENDBRANCH   19   17
ENDBRANCH   20   19
ENDBRANCH   21   20
ENDBRANCH   22   21
ENDBRANCH   23   22
ENDBRANCH   24   23
ENDBRANCH   25   24
ENDBRANCH   26   25
ENDBRANCH   27   26
ENDBRANCH   29   27
ENDBRANCH   33   32
BRANCH   37   38
ATOM     38  C27 UNL A   1      17.685  55.528   0.722  1.00  0.00    +0.000 C 
ATOM     39  C28 UNL A   1      18.961  55.937   1.136  1.00  0.00    +0.000 C 
ATOM     40  F1  UNL A   1      19.590  55.286   2.127  1.00  0.00    +0.000 F 
ATOM     41  C29 UNL A   1      19.580  57.046   0.564  1.00  0.00    +0.000 C 
ATOM     42  F2  UNL A   1      20.776  57.450   1.014  1.00  0.00    +0.000 F 
ATOM     43  C30 UNL A   1      18.955  57.742  -0.460  1.00  0.00    +0.000 C 
ATOM     44  F3  UNL A   1      19.554  58.806  -1.012  1.00  0.00    +0.000 F 
ATOM     45  C31 UNL A   1      17.704  57.340  -0.904  1.00  0.00    +0.000 C 
ATOM     46  F4  UNL A   1      17.104  58.002  -1.901  1.00  0.00    +0.000 F 
ATOM     47  C32 UNL A   1      17.069  56.251  -0.312  1.00  0.00    +0.000 C 
ATOM     48  F5  UNL A   1      15.851  55.900  -0.751  1.00  0.00    +0.000 F 
ENDBRANCH   37   38
BRANCH   54   55
ATOM     65  F10 UNL A   1      14.831  48.916  -2.018  1.00  0.00    +0.000 F 
ATOM     55  C38 UNL A   1      16.796  48.526  -0.732  1.00  0.00    +0.000 C 
ATOM     56  C39 UNL A   1      17.993  47.808  -0.600  1.00  0.00    +0.000 C 
ATOM     57  F6  UNL A   1      18.807  48.039   0.442  1.00  0.00    +0.000 F 
ATOM     58  C40 UNL A   1      18.375  46.872  -1.557  1.00  0.00    +0.000 C 
ATOM     59  F7  UNL A   1      19.544  46.227  -1.430  1.00  0.00    +0.000 F 
ATOM     60  C41 UNL A   1      17.555  46.613  -2.644  1.00  0.00    +0.000 C 
ATOM     61  F8  UNL A   1      17.919  45.702  -3.557  1.00  0.00    +0.000 F 
ATOM     62  C42 UNL A   1      16.361  47.302  -2.787  1.00  0.00    +0.000 C 
ATOM     63  F9  UNL A   1      15.560  47.043  -3.831  1.00  0.00    +0.000 F 
ATOM     64  C43 UNL A   1      15.989  48.260  -1.849  1.00  0.00    +0.000 C 
ENDBRANCH   54   55
BRANCH   69   70
ATOM     70  C47 UNL A   1      12.538  47.997   4.767  1.00  0.00    +0.000 C 
ATOM     71  C48 UNL A   1      12.998  47.232   5.847  1.00  0.00    +0.000 C 
ATOM     72  F11 UNL A   1      14.214  47.467   6.364  1.00  0.00    +0.000 F 
ATOM     73  C49 UNL A   1      12.223  46.206   6.384  1.00  0.00    +0.000 C 
ATOM     74  F12 UNL A   1      12.702  45.468   7.395  1.00  0.00    +0.000 F 
ATOM     75  C50 UNL A   1      10.965  45.941   5.867  1.00  0.00    +0.000 C 
ATOM     76  F13 UNL A   1      10.215  44.962   6.393  1.00  0.00    +0.000 F 
ATOM     77  C51 UNL A   1      10.483  46.691   4.804  1.00  0.00    +0.000 C 
ATOM     78  F14 UNL A   1       9.259  46.452   4.315  1.00  0.00    +0.000 F 
ATOM     79  C52 UNL A   1      11.268  47.699   4.250  1.00  0.00    +0.000 C 
ATOM     80  F15 UNL A   1      10.779  48.409   3.222  1.00  0.00    +0.000 F 
ENDBRANCH   69   70
TORSDOF 21
ENDMDL
MODEL 6
REMARK VINA RESULT:     -10.4     37.202     42.774
ROOT
ATOM     33  C23 UNL A   1      14.164  53.828   5.196  1.00  0.00    +0.000 C 
ATOM     34  C24 UNL A   1      15.074  54.288   4.094  1.00  0.00    +0.000 C 
ATOM     35  N5  UNL A   1      15.563  53.610   3.086  1.00  0.00    +0.000 N 
ATOM     36  C25 UNL A   1      16.302  54.520   2.342  1.00  0.00    +0.000 C 
ATOM     37  C26 UNL A   1      17.046  54.295   1.232  1.00  0.00    +0.000 C 
ATOM     49  C33 UNL A   1      17.210  53.005   0.614  1.00  0.00    +0.000 C 
ATOM     50  C34 UNL A   1      18.013  52.658  -0.458  1.00  0.00    +0.000 C 
ATOM     51  C35 UNL A   1      17.791  51.308  -0.753  1.00  0.00    +0.000 C 
ATOM     52  C36 UNL A   1      16.887  50.801   0.167  1.00  0.00    +0.000 C 
ATOM     53  N6  UNL A   1      16.547  51.850   1.006  1.00  0.00    +0.000 N 
ATOM     54  C37 UNL A   1      16.368  49.461   0.272  1.00  0.00    +0.000 C 
ATOM     66  C44 UNL A   1      15.535  49.025   1.250  1.00  0.00    +0.000 C 
ATOM     67  N7  UNL A   1      14.994  49.734   2.314  1.00  0.00    +0.000 N 
ATOM     68  C45 UNL A   1      14.239  48.883   2.966  1.00  0.00    +0.000 C 
ATOM     69  C46 UNL A   1      13.419  49.105   4.207  1.00  0.00    +0.000 C 
ATOM     81  C53 UNL A   1      13.430  50.315   4.797  1.00  0.00    +0.000 C 
ATOM     82  C54 UNL A   1      12.679  50.675   5.996  1.00  0.00    +0.000 C 
ATOM     83  C55 UNL A   1      12.859  51.981   6.249  1.00  0.00    +0.000 C 
ATOM     84  C56 UNL A   1      13.775  52.540   5.254  1.00  0.00    +0.000 C 
ATOM     85  N8  UNL A   1      14.084  51.472   4.449  1.00  0.00    +0.000 N 
ATOM     86  C57 UNL A   1      14.205  47.537   2.378  1.00  0.00    +0.000 C 
ATOM     87  C58 UNL A   1      15.037  47.670   1.354  1.00  0.00    +0.000 C 
ATOM     88  C59 UNL A   1      16.156  55.808   2.985  1.00  0.00    +0.000 C 
ATOM     89  C60 UNL A   1      15.461  55.707   4.108  1.00  0.00    +0.000 C 
ATOM    119  H25 UNL A   1      18.665  53.285  -0.954  1.00  0.00    +0.000 H 
ATOM    120  H26 UNL A   1      18.225  50.780  -1.525  1.00  0.00    +0.000 H 
ATOM    121  H27 UNL A   1      15.928  51.787   1.769  1.00  0.00    +0.000 H 
ATOM    122  H28 UNL A   1      12.101  50.030   6.558  1.00  0.00    +0.000 H 
ATOM    123  H29 UNL A   1      12.421  52.507   7.022  1.00  0.00    +0.000 H 
ATOM    124  H30 UNL A   1      14.713  51.529   3.694  1.00  0.00    +0.000 H 
ATOM    125  H31 UNL A   1      13.673  46.707   2.682  1.00  0.00    +0.000 H 
ATOM    126  H32 UNL A   1      15.296  46.903   0.713  1.00  0.00    +0.000 H 
ATOM    127  H33 UNL A   1      16.545  56.690   2.617  1.00  0.00    +0.000 H 
ATOM    128  H34 UNL A   1      15.247  56.433   4.810  1.00  0.00    +0.000 H 
ENDROOT
BRANCH   33   32
ATOM    129  H35 UNL A   1      15.361  54.850   7.363  1.00  0.00    +0.000 H 
ATOM    130  H36 UNL A   1      14.490  56.441   8.972  1.00  0.00    +0.000 H 
ATOM    117  H23 UNL A   1      10.916  56.719   6.771  1.00  0.00    +0.000 H 
ATOM    118  H24 UNL A   1      11.701  54.970   5.283  1.00  0.00    +0.000 H 
ATOM     90  C61 UNL A   1      14.411  55.235   7.243  1.00  0.00    +0.000 C 
ATOM     91  C62 UNL A   1      13.928  56.180   8.146  1.00  0.00    +0.000 C 
ATOM     29  C19 UNL A   1      12.681  56.774   7.932  1.00  0.00    +0.000 C 
ATOM     30  C20 UNL A   1      11.860  56.320   6.896  1.00  0.00    +0.000 C 
ATOM     31  C21 UNL A   1      12.317  55.324   6.030  1.00  0.00    +0.000 C 
ATOM     32  C22 UNL A   1      13.614  54.803   6.172  1.00  0.00    +0.000 C 
BRANCH   29   27
ATOM     27  C18 UNL A   1      12.195  57.876   8.793  1.00  0.00    +0.000 C 
ATOM     28  O5  UNL A   1      12.295  59.036   8.406  1.00  0.00    +0.000 O 
BRANCH   27   26
ATOM     26  N4  UNL A   1      11.660  57.607  10.028  1.00  0.00    +0.000 N 
ATOM    116  H22 UNL A   1      12.244  57.823  10.792  1.00  0.00    +0.000 H 
BRANCH   26   25
ATOM     25  C17 UNL A   1      10.363  57.055  10.381  1.00  0.00    +0.000 C 
ATOM    114  H20 UNL A   1      10.102  57.395  11.360  1.00  0.00    +0.000 H 
ATOM    115  H21 UNL A   1       9.663  57.387   9.643  1.00  0.00    +0.000 H 
BRANCH   25   24
ATOM    113  H19 UNL A   1      10.147  55.247   9.361  1.00  0.00    +0.000 H 
ATOM    112  H18 UNL A   1       9.603  55.208  11.073  1.00  0.00    +0.000 H 
ATOM     24  C16 UNL A   1      10.347  55.530  10.374  1.00  0.00    +0.000 C 
BRANCH   24   23
ATOM    111  H17 UNL A   1      11.568  54.583  11.774  1.00  0.00    +0.000 H 
ATOM    110  H16 UNL A   1      12.458  55.524  10.524  1.00  0.00    +0.000 H 
ATOM     23  C15 UNL A   1      11.663  54.842  10.741  1.00  0.00    +0.000 C 
BRANCH   23   22
ATOM    108  H14 UNL A   1      11.420  52.752  10.513  1.00  0.00    +0.000 H 
ATOM    109  H15 UNL A   1      11.696  53.692   9.002  1.00  0.00    +0.000 H 
ATOM     22  C14 UNL A   1      11.971  53.527  10.022  1.00  0.00    +0.000 C 
BRANCH   22   21
ATOM    106  H12 UNL A   1      13.458  52.028   9.916  1.00  0.00    +0.000 H 
ATOM    107  H13 UNL A   1      13.851  53.604   9.132  1.00  0.00    +0.000 H 
ATOM     21  C13 UNL A   1      13.437  53.096   9.978  1.00  0.00    +0.000 C 
BRANCH   21   20
ATOM    105  H11 UNL A   1      13.964  54.471  11.471  1.00  0.00    +0.000 H 
ATOM     20  C12 UNL A   1      14.310  53.508  11.156  1.00  0.00    +0.000 C 
ATOM    104  H10 UNL A   1      15.329  53.516  10.830  1.00  0.00    +0.000 H 
BRANCH   20   19
ATOM     19  N3  UNL A   1      14.210  52.633  12.313  1.00  0.00    +0.000 N 
ATOM    103  H9  UNL A   1      13.569  52.931  12.998  1.00  0.00    +0.000 H 
BRANCH   19   17
ATOM     17  C11 UNL A   1      14.862  51.458  12.610  1.00  0.00    +0.000 C 
ATOM     18  O4  UNL A   1      15.055  51.163  13.791  1.00  0.00    +0.000 O 
BRANCH   17   16
ATOM    131  H37 UNL A   1      13.340  49.753  11.115  1.00  0.00    +0.000 H 
ATOM    100  H6  UNL A   1      16.464  47.643   9.254  1.00  0.00    +0.000 H 
ATOM    101  H7  UNL A   1      18.040  49.324  10.045  1.00  0.00    +0.000 H 
ATOM     11  C6  UNL A   1      14.797  48.531  10.200  1.00  0.00    +0.000 C 
ATOM     12  C7  UNL A   1      16.142  48.418   9.854  1.00  0.00    +0.000 C 
ATOM     13  C8  UNL A   1      17.049  49.367  10.331  1.00  0.00    +0.000 C 
ATOM     14  C9  UNL A   1      16.615  50.376  11.195  1.00  0.00    +0.000 C 
ATOM     16  C10 UNL A   1      15.267  50.473  11.571  1.00  0.00    +0.000 C 
ATOM     92  C63 UNL A   1      14.351  49.604  10.978  1.00  0.00    +0.000 C 
BRANCH   11   10
ATOM     10  C5  UNL A   1      13.856  47.434   9.888  1.00  0.00    +0.000 C 
ATOM     99  H5  UNL A   1      14.128  46.690   9.226  1.00  0.00    +0.000 H 
BRANCH   10    9
ATOM      9  N2  UNL A   1      12.688  47.408  10.449  1.00  0.00    +0.000 N 
BRANCH    9    8
ATOM     97  H3  UNL A   1      10.002  49.605   7.561  1.00  0.00    +0.000 H 
ATOM     98  H4  UNL A   1      12.049  49.330   8.835  1.00  0.00    +0.000 H 
ATOM    132  H38 UNL A   1      10.642  45.667  10.334  1.00  0.00    +0.000 H 
ATOM    133  H39 UNL A   1       8.597  45.923   9.050  1.00  0.00    +0.000 H 
ATOM      6  C2  UNL A   1      10.140  48.766   8.145  1.00  0.00    +0.000 C 
ATOM      5  C1  UNL A   1       9.150  47.784   8.213  1.00  0.00    +0.000 C 
ATOM      7  C3  UNL A   1      11.320  48.601   8.877  1.00  0.00    +0.000 C 
ATOM      8  C4  UNL A   1      11.527  47.464   9.667  1.00  0.00    +0.000 C 
ATOM     93  C64 UNL A   1      10.514  46.498   9.736  1.00  0.00    +0.000 C 
ATOM     94  C65 UNL A   1       9.331  46.647   9.005  1.00  0.00    +0.000 C 
BRANCH    5    2
ATOM      2  S1  UNL A   1       7.659  47.982   7.281  1.00  0.00    +0.000 S 
ATOM      3  O1  UNL A   1       6.706  48.729   8.063  1.00  0.00    +0.000 O 
ATOM      4  O2  UNL A   1       7.339  46.717   6.658  1.00  0.00    +0.000 O 
BRANCH    2    1
ATOM      1  N1  UNL A   1       8.130  49.016   6.043  1.00  0.00    +0.000 N 
ATOM     95  H1  UNL A   1       8.093  49.980   6.373  1.00  0.00    +0.000 H 
ATOM     96  H2  UNL A   1       7.500  48.904   5.249  1.00  0.00    +0.000 H 
ENDBRANCH    2    1
ENDBRANCH    5    2
ENDBRANCH    9    8
ENDBRANCH   10    9
ENDBRANCH   11   10
BRANCH   14   15
ATOM    102  H8  UNL A   1      18.477  50.964  11.671  1.00  0.00    +0.000 H 
ATOM     15  O3  UNL A   1      17.581  51.234  11.654  1.00  0.00    +0.000 O 
ENDBRANCH   14   15
ENDBRANCH   17   16
ENDBRANCH   19   17
ENDBRANCH   20   19
ENDBRANCH   21   20
ENDBRANCH   22   21
ENDBRANCH   23   22
ENDBRANCH   24   23
ENDBRANCH   25   24
ENDBRANCH   26   25
ENDBRANCH   27   26
ENDBRANCH   29   27
ENDBRANCH   33   32
BRANCH   37   38
ATOM     38  C27 UNL A   1      17.733  55.475   0.606  1.00  0.00    +0.000 C 
ATOM     39  C28 UNL A   1      17.164  56.185  -0.461  1.00  0.00    +0.000 C 
ATOM     40  F1  UNL A   1      15.989  55.797  -0.980  1.00  0.00    +0.000 F 
ATOM     41  C29 UNL A   1      17.820  57.274  -1.030  1.00  0.00    +0.000 C 
ATOM     42  F2  UNL A   1      17.282  57.903  -2.084  1.00  0.00    +0.000 F 
ATOM     43  C30 UNL A   1      19.038  57.698  -0.519  1.00  0.00    +0.000 C 
ATOM     44  F3  UNL A   1      19.667  58.748  -1.065  1.00  0.00    +0.000 F 
ATOM     45  C31 UNL A   1      19.608  57.027   0.552  1.00  0.00    +0.000 C 
ATOM     46  F4  UNL A   1      20.777  57.443   1.057  1.00  0.00    +0.000 F 
ATOM     47  C32 UNL A   1      18.969  55.919   1.103  1.00  0.00    +0.000 C 
ATOM     48  F5  UNL A   1      19.556  55.280   2.127  1.00  0.00    +0.000 F 
ENDBRANCH   37   38
BRANCH   54   55
ATOM     65  F10 UNL A   1      18.806  47.992   0.404  1.00  0.00    +0.000 F 
ATOM     55  C38 UNL A   1      16.789  48.464  -0.768  1.00  0.00    +0.000 C 
ATOM     56  C39 UNL A   1      16.001  48.217  -1.902  1.00  0.00    +0.000 C 
ATOM     57  F6  UNL A   1      14.815  48.827  -2.045  1.00  0.00    +0.000 F 
ATOM     58  C40 UNL A   1      16.416  47.316  -2.879  1.00  0.00    +0.000 C 
ATOM     59  F7  UNL A   1      15.627  47.066  -3.935  1.00  0.00    +0.000 F 
ATOM     60  C41 UNL A   1      17.637  46.670  -2.758  1.00  0.00    +0.000 C 
ATOM     61  F8  UNL A   1      18.040  45.813  -3.707  1.00  0.00    +0.000 F 
ATOM     62  C42 UNL A   1      18.437  46.910  -1.652  1.00  0.00    +0.000 C 
ATOM     63  F9  UNL A   1      19.625  46.297  -1.540  1.00  0.00    +0.000 F 
ATOM     64  C43 UNL A   1      18.013  47.787  -0.658  1.00  0.00    +0.000 C 
ENDBRANCH   54   55
BRANCH   69   70
ATOM     70  C47 UNL A   1      12.599  48.011   4.789  1.00  0.00    +0.000 C 
ATOM     71  C48 UNL A   1      11.342  47.691   4.260  1.00  0.00    +0.000 C 
ATOM     72  F11 UNL A   1      10.846  48.403   3.237  1.00  0.00    +0.000 F 
ATOM     73  C49 UNL A   1      10.578  46.657   4.797  1.00  0.00    +0.000 C 
ATOM     74  F12 UNL A   1       9.365  46.393   4.292  1.00  0.00    +0.000 F 
ATOM     75  C50 UNL A   1      11.066  45.907   5.855  1.00  0.00    +0.000 C 
ATOM     76  F13 UNL A   1      10.335  44.904   6.362  1.00  0.00    +0.000 F 
ATOM     77  C51 UNL A   1      12.312  46.199   6.390  1.00  0.00    +0.000 C 
ATOM     78  F14 UNL A   1      12.796  45.464   7.400  1.00  0.00    +0.000 F 
ATOM     79  C52 UNL A   1      13.065  47.250   5.872  1.00  0.00    +0.000 C 
ATOM     80  F15 UNL A   1      14.267  47.512   6.408  1.00  0.00    +0.000 F 
ENDBRANCH   69   70
TORSDOF 21
ENDMDL
MODEL 7
REMARK VINA RESULT:     -10.3     20.355     25.484
ROOT
ATOM     33  C23 UNL A   1      52.836  20.769  11.633  1.00  0.00    +0.000 C 
ATOM     34  C24 UNL A   1      54.125  20.055  11.343  1.00  0.00    +0.000 C 
ATOM     35  N5  UNL A   1      55.169  19.886  12.115  1.00  0.00    +0.000 N 
ATOM     36  C25 UNL A   1      56.061  19.117  11.380  1.00  0.00    +0.000 C 
ATOM     37  C26 UNL A   1      57.311  18.716  11.720  1.00  0.00    +0.000 C 
ATOM     49  C33 UNL A   1      57.958  19.050  12.962  1.00  0.00    +0.000 C 
ATOM     50  C34 UNL A   1      59.252  18.770  13.363  1.00  0.00    +0.000 C 
ATOM     51  C35 UNL A   1      59.412  19.225  14.676  1.00  0.00    +0.000 C 
ATOM     52  C36 UNL A   1      58.234  19.835  15.077  1.00  0.00    +0.000 C 
ATOM     53  N6  UNL A   1      57.354  19.729  14.012  1.00  0.00    +0.000 N 
ATOM     54  C37 UNL A   1      57.930  20.462  16.338  1.00  0.00    +0.000 C 
ATOM     66  C44 UNL A   1      56.769  21.100  16.627  1.00  0.00    +0.000 C 
ATOM     67  N7  UNL A   1      55.647  21.273  15.829  1.00  0.00    +0.000 N 
ATOM     68  C45 UNL A   1      54.784  21.936  16.560  1.00  0.00    +0.000 C 
ATOM     69  C46 UNL A   1      53.401  22.404  16.199  1.00  0.00    +0.000 C 
ATOM     81  C53 UNL A   1      52.924  22.162  14.963  1.00  0.00    +0.000 C 
ATOM     82  C54 UNL A   1      51.602  22.548  14.478  1.00  0.00    +0.000 C 
ATOM     83  C55 UNL A   1      51.436  22.071  13.235  1.00  0.00    +0.000 C 
ATOM     84  C56 UNL A   1      52.658  21.383  12.818  1.00  0.00    +0.000 C 
ATOM     85  N8  UNL A   1      53.497  21.511  13.898  1.00  0.00    +0.000 N 
ATOM     86  C57 UNL A   1      55.259  22.247  17.916  1.00  0.00    +0.000 C 
ATOM     87  C58 UNL A   1      56.485  21.744  17.893  1.00  0.00    +0.000 C 
ATOM     88  C59 UNL A   1      55.416  18.809  10.122  1.00  0.00    +0.000 C 
ATOM     89  C60 UNL A   1      54.244  19.420  10.022  1.00  0.00    +0.000 C 
ATOM    119  H25 UNL A   1      59.976  18.307  12.791  1.00  0.00    +0.000 H 
ATOM    120  H26 UNL A   1      60.264  19.123  15.250  1.00  0.00    +0.000 H 
ATOM    121  H27 UNL A   1      56.435  20.084  13.999  1.00  0.00    +0.000 H 
ATOM    122  H28 UNL A   1      50.907  23.098  15.007  1.00  0.00    +0.000 H 
ATOM    123  H29 UNL A   1      50.582  22.174  12.664  1.00  0.00    +0.000 H 
ATOM    124  H30 UNL A   1      54.420  21.169  13.908  1.00  0.00    +0.000 H 
ATOM    125  H31 UNL A   1      54.766  22.730  18.683  1.00  0.00    +0.000 H 
ATOM    126  H32 UNL A   1      57.152  21.804  18.678  1.00  0.00    +0.000 H 
ATOM    127  H33 UNL A   1      55.816  18.195   9.395  1.00  0.00    +0.000 H 
ATOM    128  H34 UNL A   1      53.587  19.444   9.227  1.00  0.00    +0.000 H 
ENDROOT
BRANCH   33   32
ATOM    129  H35 UNL A   1      52.386  22.406   9.561  1.00  0.00    +0.000 H 
ATOM    130  H36 UNL A   1      50.572  22.358   7.954  1.00  0.00    +0.000 H 
ATOM    117  H23 UNL A   1      49.027  18.904   9.789  1.00  0.00    +0.000 H 
ATOM    118  H24 UNL A   1      50.715  19.076  11.525  1.00  0.00    +0.000 H 
ATOM     90  C61 UNL A   1      51.665  21.669   9.620  1.00  0.00    +0.000 C 
ATOM     91  C62 UNL A   1      50.647  21.620   8.670  1.00  0.00    +0.000 C 
ATOM     29  C19 UNL A   1      49.727  20.568   8.691  1.00  0.00    +0.000 C 
ATOM     30  C20 UNL A   1      49.741  19.649   9.744  1.00  0.00    +0.000 C 
ATOM     31  C21 UNL A   1      50.722  19.737  10.734  1.00  0.00    +0.000 C 
ATOM     32  C22 UNL A   1      51.717  20.725  10.657  1.00  0.00    +0.000 C 
BRANCH   29   27
ATOM     27  C18 UNL A   1      48.716  20.409   7.622  1.00  0.00    +0.000 C 
ATOM     28  O5  UNL A   1      48.035  21.373   7.284  1.00  0.00    +0.000 O 
BRANCH   27   26
ATOM     26  N4  UNL A   1      48.518  19.187   7.029  1.00  0.00    +0.000 N 
ATOM    116  H22 UNL A   1      47.575  18.930   6.906  1.00  0.00    +0.000 H 
BRANCH   26   25
ATOM     25  C17 UNL A   1      49.489  18.215   6.554  1.00  0.00    +0.000 C 
ATOM    114  H20 UNL A   1      49.625  17.471   7.310  1.00  0.00    +0.000 H 
ATOM    115  H21 UNL A   1      49.105  17.797   5.647  1.00  0.00    +0.000 H 
BRANCH   25   24
ATOM    113  H19 UNL A   1      50.746  19.878   6.467  1.00  0.00    +0.000 H 
ATOM    112  H18 UNL A   1      51.062  18.637   5.206  1.00  0.00    +0.000 H 
ATOM     24  C16 UNL A   1      50.844  18.837   6.235  1.00  0.00    +0.000 C 
BRANCH   24   23
ATOM    111  H17 UNL A   1      52.348  19.187   7.637  1.00  0.00    +0.000 H 
ATOM    110  H16 UNL A   1      52.760  17.951   6.394  1.00  0.00    +0.000 H 
ATOM     23  C15 UNL A   1      52.026  18.339   7.069  1.00  0.00    +0.000 C 
BRANCH   23   22
ATOM    108  H14 UNL A   1      51.660  17.725   9.061  1.00  0.00    +0.000 H 
ATOM    109  H15 UNL A   1      50.817  16.792   7.771  1.00  0.00    +0.000 H 
ATOM     22  C14 UNL A   1      51.724  17.253   8.103  1.00  0.00    +0.000 C 
BRANCH   22   21
ATOM    106  H12 UNL A   1      52.828  15.864   9.252  1.00  0.00    +0.000 H 
ATOM    107  H13 UNL A   1      52.344  15.331   7.599  1.00  0.00    +0.000 H 
ATOM     21  C13 UNL A   1      52.735  16.113   8.215  1.00  0.00    +0.000 C 
BRANCH   21   20
ATOM    105  H11 UNL A   1      54.819  15.936   8.371  1.00  0.00    +0.000 H 
ATOM     20  C12 UNL A   1      54.135  16.381   7.678  1.00  0.00    +0.000 C 
ATOM    104  H10 UNL A   1      54.262  17.440   7.588  1.00  0.00    +0.000 H 
BRANCH   20   19
ATOM     19  N3  UNL A   1      54.407  15.779   6.384  1.00  0.00    +0.000 N 
ATOM    103  H9  UNL A   1      54.855  14.903   6.424  1.00  0.00    +0.000 H 
BRANCH   19   17
ATOM     17  C11 UNL A   1      54.143  16.230   5.109  1.00  0.00    +0.000 C 
ATOM     18  O4  UNL A   1      54.906  17.052   4.596  1.00  0.00    +0.000 O 
BRANCH   17   16
ATOM    131  H37 UNL A   1      51.442  16.390   5.482  1.00  0.00    +0.000 H 
ATOM    100  H6  UNL A   1      50.257  13.892   2.315  1.00  0.00    +0.000 H 
ATOM    101  H7  UNL A   1      52.526  13.969   1.435  1.00  0.00    +0.000 H 
ATOM     11  C6  UNL A   1      50.705  15.068   4.012  1.00  0.00    +0.000 C 
ATOM     12  C7  UNL A   1      50.997  14.398   2.825  1.00  0.00    +0.000 C 
ATOM     13  C8  UNL A   1      52.305  14.420   2.336  1.00  0.00    +0.000 C 
ATOM     14  C9  UNL A   1      53.314  15.053   3.067  1.00  0.00    +0.000 C 
ATOM     16  C10 UNL A   1      53.029  15.700   4.279  1.00  0.00    +0.000 C 
ATOM     92  C63 UNL A   1      51.697  15.789   4.684  1.00  0.00    +0.000 C 
BRANCH   11   10
ATOM     10  C5  UNL A   1      49.388  14.889   4.661  1.00  0.00    +0.000 C 
ATOM     99  H5  UNL A   1      49.314  14.360   5.545  1.00  0.00    +0.000 H 
BRANCH   10    9
ATOM      9  N2  UNL A   1      48.328  15.397   4.118  1.00  0.00    +0.000 N 
BRANCH    9    8
ATOM     97  H3  UNL A   1      44.259  16.604   5.657  1.00  0.00    +0.000 H 
ATOM     98  H4  UNL A   1      46.430  17.068   4.677  1.00  0.00    +0.000 H 
ATOM    132  H38 UNL A   1      47.347  12.970   4.734  1.00  0.00    +0.000 H 
ATOM    133  H39 UNL A   1      45.171  12.492   5.699  1.00  0.00    +0.000 H 
ATOM      6  C2  UNL A   1      44.912  15.831   5.456  1.00  0.00    +0.000 C 
ATOM      5  C1  UNL A   1      44.557  14.514   5.750  1.00  0.00    +0.000 C 
ATOM      7  C3  UNL A   1      46.162  16.094   4.887  1.00  0.00    +0.000 C 
ATOM      8  C4  UNL A   1      47.056  15.057   4.598  1.00  0.00    +0.000 C 
ATOM     93  C64 UNL A   1      46.689  13.742   4.917  1.00  0.00    +0.000 C 
ATOM     94  C65 UNL A   1      45.440  13.465   5.482  1.00  0.00    +0.000 C 
BRANCH    5    2
ATOM      2  S1  UNL A   1      42.973  14.175   6.461  1.00  0.00    +0.000 S 
ATOM      3  O1  UNL A   1      43.135  13.876   7.862  1.00  0.00    +0.000 O 
ATOM      4  O2  UNL A   1      42.241  13.316   5.557  1.00  0.00    +0.000 O 
BRANCH    2    1
ATOM      1  N1  UNL A   1      42.214  15.674   6.411  1.00  0.00    +0.000 N 
ATOM     95  H1  UNL A   1      42.914  16.412   6.485  1.00  0.00    +0.000 H 
ATOM     96  H2  UNL A   1      41.557  15.749   7.187  1.00  0.00    +0.000 H 
ENDBRANCH    2    1
ENDBRANCH    5    2
ENDBRANCH    9    8
ENDBRANCH   10    9
ENDBRANCH   11   10
BRANCH   14   15
ATOM    102  H8  UNL A   1      54.715  14.570   1.709  1.00  0.00    +0.000 H 
ATOM     15  O3  UNL A   1      54.577  14.983   2.539  1.00  0.00    +0.000 O 
ENDBRANCH   14   15
ENDBRANCH   17   16
ENDBRANCH   19   17
ENDBRANCH   20   19
ENDBRANCH   21   20
ENDBRANCH   22   21
ENDBRANCH   23   22
ENDBRANCH   24   23
ENDBRANCH   25   24
ENDBRANCH   26   25
ENDBRANCH   27   26
ENDBRANCH   29   27
ENDBRANCH   33   32
BRANCH   37   38
ATOM     38  C27 UNL A   1      58.058  17.862  10.737  1.00  0.00    +0.000 C 
ATOM     39  C28 UNL A   1      58.871  18.418   9.738  1.00  0.00    +0.000 C 
ATOM     40  F1  UNL A   1      58.969  19.751   9.612  1.00  0.00    +0.000 F 
ATOM     41  C29 UNL A   1      59.553  17.608   8.833  1.00  0.00    +0.000 C 
ATOM     42  F2  UNL A   1      60.278  18.164   7.853  1.00  0.00    +0.000 F 
ATOM     43  C30 UNL A   1      59.469  16.227   8.935  1.00  0.00    +0.000 C 
ATOM     44  F3  UNL A   1      60.128  15.448   8.066  1.00  0.00    +0.000 F 
ATOM     45  C31 UNL A   1      58.693  15.654   9.931  1.00  0.00    +0.000 C 
ATOM     46  F4  UNL A   1      58.621  14.321  10.040  1.00  0.00    +0.000 F 
ATOM     47  C32 UNL A   1      57.985  16.463  10.818  1.00  0.00    +0.000 C 
ATOM     48  F5  UNL A   1      57.228  15.877  11.758  1.00  0.00    +0.000 F 
ENDBRANCH   37   38
BRANCH   54   55
ATOM     65  F10 UNL A   1      58.365  18.204  18.018  1.00  0.00    +0.000 F 
ATOM     55  C38 UNL A   1      58.979  20.421  17.410  1.00  0.00    +0.000 C 
ATOM     56  C39 UNL A   1      59.802  21.528  17.669  1.00  0.00    +0.000 C 
ATOM     57  F6  UNL A   1      59.707  22.630  16.911  1.00  0.00    +0.000 F 
ATOM     58  C40 UNL A   1      60.748  21.493  18.689  1.00  0.00    +0.000 C 
ATOM     59  F7  UNL A   1      61.551  22.548  18.892  1.00  0.00    +0.000 F 
ATOM     60  C41 UNL A   1      60.870  20.366  19.488  1.00  0.00    +0.000 C 
ATOM     61  F8  UNL A   1      61.773  20.340  20.478  1.00  0.00    +0.000 F 
ATOM     62  C42 UNL A   1      60.058  19.267  19.259  1.00  0.00    +0.000 C 
ATOM     63  F9  UNL A   1      60.164  18.182  20.040  1.00  0.00    +0.000 F 
ATOM     64  C43 UNL A   1      59.131  19.286  18.221  1.00  0.00    +0.000 C 
ENDBRANCH   54   55
BRANCH   69   70
ATOM     70  C47 UNL A   1      52.555  23.128  17.184  1.00  0.00    +0.000 C 
ATOM     71  C48 UNL A   1      52.611  24.523  17.296  1.00  0.00    +0.000 C 
ATOM     72  F11 UNL A   1      53.466  25.221  16.535  1.00  0.00    +0.000 F 
ATOM     73  C49 UNL A   1      51.808  25.204  18.210  1.00  0.00    +0.000 C 
ATOM     74  F12 UNL A   1      51.906  26.535  18.320  1.00  0.00    +0.000 F 
ATOM     75  C50 UNL A   1      50.918  24.505  19.010  1.00  0.00    +0.000 C 
ATOM     76  F13 UNL A   1      50.137  25.163  19.878  1.00  0.00    +0.000 F 
ATOM     77  C51 UNL A   1      50.837  23.124  18.909  1.00  0.00    +0.000 C 
ATOM     78  F14 UNL A   1      49.963  22.447  19.666  1.00  0.00    +0.000 F 
ATOM     79  C52 UNL A   1      51.658  22.440  18.016  1.00  0.00    +0.000 C 
ATOM     80  F15 UNL A   1      51.561  21.104  17.940  1.00  0.00    +0.000 F 
ENDBRANCH   69   70
TORSDOF 21
ENDMDL
MODEL 8
REMARK VINA RESULT:     -10.3      4.314      7.082
ROOT
ATOM     33  C23 UNL A   1      42.278  25.722  27.693  1.00  0.00    +0.000 C 
ATOM     34  C24 UNL A   1      43.615  26.153  27.163  1.00  0.00    +0.000 C 
ATOM     35  N5  UNL A   1      44.206  27.318  27.255  1.00  0.00    +0.000 N 
ATOM     36  C25 UNL A   1      45.441  27.165  26.639  1.00  0.00    +0.000 C 
ATOM     37  C26 UNL A   1      46.401  28.098  26.428  1.00  0.00    +0.000 C 
ATOM     49  C33 UNL A   1      46.287  29.479  26.819  1.00  0.00    +0.000 C 
ATOM     50  C34 UNL A   1      47.164  30.520  26.570  1.00  0.00    +0.000 C 
ATOM     51  C35 UNL A   1      46.672  31.667  27.204  1.00  0.00    +0.000 C 
ATOM     52  C36 UNL A   1      45.464  31.353  27.806  1.00  0.00    +0.000 C 
ATOM     53  N6  UNL A   1      45.235  30.010  27.552  1.00  0.00    +0.000 N 
ATOM     54  C37 UNL A   1      44.586  32.211  28.559  1.00  0.00    +0.000 C 
ATOM     66  C44 UNL A   1      43.380  31.841  29.059  1.00  0.00    +0.000 C 
ATOM     67  N7  UNL A   1      42.749  30.608  28.987  1.00  0.00    +0.000 N 
ATOM     68  C45 UNL A   1      41.618  30.744  29.636  1.00  0.00    +0.000 C 
ATOM     69  C46 UNL A   1      40.532  29.730  29.869  1.00  0.00    +0.000 C 
ATOM     81  C53 UNL A   1      40.662  28.493  29.351  1.00  0.00    +0.000 C 
ATOM     82  C54 UNL A   1      39.697  27.409  29.504  1.00  0.00    +0.000 C 
ATOM     83  C55 UNL A   1      40.192  26.300  28.932  1.00  0.00    +0.000 C 
ATOM     84  C56 UNL A   1      41.491  26.607  28.334  1.00  0.00    +0.000 C 
ATOM     85  N8  UNL A   1      41.677  27.940  28.609  1.00  0.00    +0.000 N 
ATOM     86  C57 UNL A   1      41.411  32.083  30.207  1.00  0.00    +0.000 C 
ATOM     87  C58 UNL A   1      42.499  32.720  29.799  1.00  0.00    +0.000 C 
ATOM     88  C59 UNL A   1      45.536  25.782  26.224  1.00  0.00    +0.000 C 
ATOM     89  C60 UNL A   1      44.408  25.130  26.466  1.00  0.00    +0.000 C 
ATOM    119  H25 UNL A   1      48.029  30.463  26.011  1.00  0.00    +0.000 H 
ATOM    120  H26 UNL A   1      47.133  32.590  27.222  1.00  0.00    +0.000 H 
ATOM    121  H27 UNL A   1      44.443  29.506  27.848  1.00  0.00    +0.000 H 
ATOM    122  H28 UNL A   1      38.782  27.483  29.975  1.00  0.00    +0.000 H 
ATOM    123  H29 UNL A   1      39.729  25.377  28.918  1.00  0.00    +0.000 H 
ATOM    124  H30 UNL A   1      42.462  28.450  28.303  1.00  0.00    +0.000 H 
ATOM    125  H31 UNL A   1      40.624  32.433  30.777  1.00  0.00    +0.000 H 
ATOM    126  H32 UNL A   1      42.692  33.717  29.985  1.00  0.00    +0.000 H 
ATOM    127  H33 UNL A   1      46.373  25.358  25.794  1.00  0.00    +0.000 H 
ATOM    128  H34 UNL A   1      44.153  24.159  26.227  1.00  0.00    +0.000 H 
ENDROOT
BRANCH   33   32
ATOM    129  H35 UNL A   1      40.893  24.542  25.728  1.00  0.00    +0.000 H 
ATOM    130  H36 UNL A   1      40.187  22.230  25.543  1.00  0.00    +0.000 H 
ATOM    117  H23 UNL A   1      42.123  21.343  29.171  1.00  0.00    +0.000 H 
ATOM    118  H24 UNL A   1      42.643  23.695  29.464  1.00  0.00    +0.000 H 
ATOM     90  C61 UNL A   1      41.143  23.867  26.468  1.00  0.00    +0.000 C 
ATOM     91  C62 UNL A   1      40.772  22.530  26.339  1.00  0.00    +0.000 C 
ATOM     29  C19 UNL A   1      41.192  21.597  27.291  1.00  0.00    +0.000 C 
ATOM     30  C20 UNL A   1      41.861  22.025  28.441  1.00  0.00    +0.000 C 
ATOM     31  C21 UNL A   1      42.175  23.376  28.603  1.00  0.00    +0.000 C 
ATOM     32  C22 UNL A   1      41.854  24.302  27.597  1.00  0.00    +0.000 C 
BRANCH   29   27
ATOM     27  C18 UNL A   1      40.932  20.150  27.117  1.00  0.00    +0.000 C 
ATOM     28  O5  UNL A   1      41.219  19.370  28.020  1.00  0.00    +0.000 O 
BRANCH   27   26
ATOM     26  N4  UNL A   1      40.399  19.676  25.944  1.00  0.00    +0.000 N 
ATOM    116  H22 UNL A   1      41.054  19.496  25.230  1.00  0.00    +0.000 H 
BRANCH   26   25
ATOM     25  C17 UNL A   1      39.016  19.398  25.595  1.00  0.00    +0.000 C 
ATOM    114  H20 UNL A   1      38.995  18.910  24.644  1.00  0.00    +0.000 H 
ATOM    115  H21 UNL A   1      38.608  18.783  26.370  1.00  0.00    +0.000 H 
BRANCH   25   24
ATOM    113  H19 UNL A   1      38.716  21.346  24.911  1.00  0.00    +0.000 H 
ATOM    112  H18 UNL A   1      37.980  20.997  26.513  1.00  0.00    +0.000 H 
ATOM     24  C16 UNL A   1      38.160  20.658  25.514  1.00  0.00    +0.000 C 
BRANCH   24   23
ATOM    111  H17 UNL A   1      36.267  19.791  25.405  1.00  0.00    +0.000 H 
ATOM    110  H16 UNL A   1      36.989  20.207  23.809  1.00  0.00    +0.000 H 
ATOM     23  C15 UNL A   1      36.805  20.507  24.820  1.00  0.00    +0.000 C 
BRANCH   23   22
ATOM    108  H14 UNL A   1      34.897  21.421  24.850  1.00  0.00    +0.000 H 
ATOM    109  H15 UNL A   1      36.242  22.357  25.597  1.00  0.00    +0.000 H 
ATOM     22  C14 UNL A   1      35.913  21.749  24.781  1.00  0.00    +0.000 C 
BRANCH   22   21
ATOM    106  H12 UNL A   1      36.902  23.248  23.665  1.00  0.00    +0.000 H 
ATOM    107  H13 UNL A   1      36.067  21.962  22.716  1.00  0.00    +0.000 H 
ATOM     21  C13 UNL A   1      36.030  22.639  23.544  1.00  0.00    +0.000 C 
BRANCH   21   20
ATOM    105  H11 UNL A   1      35.245  24.371  22.661  1.00  0.00    +0.000 H 
ATOM     20  C12 UNL A   1      34.858  23.565  23.250  1.00  0.00    +0.000 C 
ATOM    104  H10 UNL A   1      34.446  23.891  24.183  1.00  0.00    +0.000 H 
BRANCH   20   19
ATOM     19  N3  UNL A   1      33.792  22.957  22.471  1.00  0.00    +0.000 N 
ATOM    103  H9  UNL A   1      33.975  22.893  21.506  1.00  0.00    +0.000 H 
BRANCH   19   17
ATOM     17  C11 UNL A   1      32.569  22.457  22.858  1.00  0.00    +0.000 C 
ATOM     18  O4  UNL A   1      32.035  21.584  22.170  1.00  0.00    +0.000 O 
BRANCH   17   16
ATOM    131  H37 UNL A   1      31.382  24.814  23.561  1.00  0.00    +0.000 H 
ATOM    100  H6  UNL A   1      30.613  23.912  27.594  1.00  0.00    +0.000 H 
ATOM    101  H7  UNL A   1      31.142  21.577  27.150  1.00  0.00    +0.000 H 
ATOM     11  C6  UNL A   1      31.042  24.550  25.626  1.00  0.00    +0.000 C 
ATOM     12  C7  UNL A   1      30.932  23.619  26.658  1.00  0.00    +0.000 C 
ATOM     13  C8  UNL A   1      31.263  22.285  26.409  1.00  0.00    +0.000 C 
ATOM     14  C9  UNL A   1      31.756  21.909  25.157  1.00  0.00    +0.000 C 
ATOM     16  C10 UNL A   1      31.899  22.851  24.126  1.00  0.00    +0.000 C 
ATOM     92  C63 UNL A   1      31.435  24.148  24.346  1.00  0.00    +0.000 C 
BRANCH   11   10
ATOM     10  C5  UNL A   1      30.904  25.994  25.912  1.00  0.00    +0.000 C 
ATOM     99  H5  UNL A   1      30.290  26.315  26.678  1.00  0.00    +0.000 H 
BRANCH   10    9
ATOM      9  N2  UNL A   1      31.556  26.857  25.198  1.00  0.00    +0.000 N 
BRANCH    9    8
ATOM     97  H3  UNL A   1      30.574  31.181  24.350  1.00  0.00    +0.000 H 
ATOM     98  H4  UNL A   1      31.824  29.420  25.457  1.00  0.00    +0.000 H 
ATOM    132  H38 UNL A   1      29.662  26.522  23.319  1.00  0.00    +0.000 H 
ATOM    133  H39 UNL A   1      28.417  28.276  22.192  1.00  0.00    +0.000 H 
ATOM      6  C2  UNL A   1      30.383  30.192  24.126  1.00  0.00    +0.000 C 
ATOM      5  C1  UNL A   1      29.404  29.857  23.191  1.00  0.00    +0.000 C 
ATOM      7  C3  UNL A   1      31.105  29.174  24.759  1.00  0.00    +0.000 C 
ATOM      8  C4  UNL A   1      30.867  27.828  24.460  1.00  0.00    +0.000 C 
ATOM     93  C64 UNL A   1      29.867  27.510  23.531  1.00  0.00    +0.000 C 
ATOM     94  C65 UNL A   1      29.141  28.518  22.887  1.00  0.00    +0.000 C 
BRANCH    5    2
ATOM      2  S1  UNL A   1      28.495  31.140  22.380  1.00  0.00    +0.000 S 
ATOM      3  O1  UNL A   1      27.800  30.586  21.245  1.00  0.00    +0.000 O 
ATOM      4  O2  UNL A   1      29.340  32.309  22.286  1.00  0.00    +0.000 O 
BRANCH    2    1
ATOM      1  N1  UNL A   1      27.296  31.510  23.499  1.00  0.00    +0.000 N 
ATOM     95  H1  UNL A   1      26.380  31.364  23.076  1.00  0.00    +0.000 H 
ATOM     96  H2  UNL A   1      27.388  32.484  23.786  1.00  0.00    +0.000 H 
ENDBRANCH    2    1
ENDBRANCH    5    2
ENDBRANCH    9    8
ENDBRANCH   10    9
ENDBRANCH   11   10
BRANCH   14   15
ATOM    102  H8  UNL A   1      32.645  20.178  25.657  1.00  0.00    +0.000 H 
ATOM     15  O3  UNL A   1      32.102  20.591  25.015  1.00  0.00    +0.000 O 
ENDBRANCH   14   15
ENDBRANCH   17   16
ENDBRANCH   19   17
ENDBRANCH   20   19
ENDBRANCH   21   20
ENDBRANCH   22   21
ENDBRANCH   23   22
ENDBRANCH   24   23
ENDBRANCH   25   24
ENDBRANCH   26   25
ENDBRANCH   27   26
ENDBRANCH   29   27
ENDBRANCH   33   32
BRANCH   37   38
ATOM     38  C27 UNL A   1      47.665  27.653  25.751  1.00  0.00    +0.000 C 
ATOM     39  C28 UNL A   1      48.803  27.276  26.479  1.00  0.00    +0.000 C 
ATOM     40  F1  UNL A   1      48.800  27.342  27.819  1.00  0.00    +0.000 F 
ATOM     41  C29 UNL A   1      49.968  26.870  25.831  1.00  0.00    +0.000 C 
ATOM     42  F2  UNL A   1      51.060  26.568  26.546  1.00  0.00    +0.000 F 
ATOM     43  C30 UNL A   1      50.005  26.795  24.447  1.00  0.00    +0.000 C 
ATOM     44  F3  UNL A   1      51.124  26.402  23.824  1.00  0.00    +0.000 F 
ATOM     45  C31 UNL A   1      48.883  27.138  23.707  1.00  0.00    +0.000 C 
ATOM     46  F4  UNL A   1      48.911  27.053  22.370  1.00  0.00    +0.000 F 
ATOM     47  C32 UNL A   1      47.727  27.574  24.351  1.00  0.00    +0.000 C 
ATOM     48  F5  UNL A   1      46.666  27.916  23.605  1.00  0.00    +0.000 F 
ENDBRANCH   37   38
BRANCH   54   55
ATOM     65  F10 UNL A   1      43.896  34.381  26.848  1.00  0.00    +0.000 F 
ATOM     55  C38 UNL A   1      45.027  33.625  28.801  1.00  0.00    +0.000 C 
ATOM     56  C39 UNL A   1      45.844  33.958  29.891  1.00  0.00    +0.000 C 
ATOM     57  F6  UNL A   1      46.197  33.018  30.781  1.00  0.00    +0.000 F 
ATOM     58  C40 UNL A   1      46.277  35.266  30.088  1.00  0.00    +0.000 C 
ATOM     59  F7  UNL A   1      47.025  35.569  31.159  1.00  0.00    +0.000 F 
ATOM     60  C41 UNL A   1      45.928  36.259  29.185  1.00  0.00    +0.000 C 
ATOM     61  F8  UNL A   1      46.356  37.515  29.369  1.00  0.00    +0.000 F 
ATOM     62  C42 UNL A   1      45.131  35.949  28.093  1.00  0.00    +0.000 C 
ATOM     63  F9  UNL A   1      44.804  36.904  27.211  1.00  0.00    +0.000 F 
ATOM     64  C43 UNL A   1      44.672  34.648  27.909  1.00  0.00    +0.000 C 
ENDBRANCH   54   55
BRANCH   69   70
ATOM     70  C47 UNL A   1      39.321  30.070  30.661  1.00  0.00    +0.000 C 
ATOM     71  C48 UNL A   1      38.189  30.621  30.046  1.00  0.00    +0.000 C 
ATOM     72  F11 UNL A   1      38.203  30.885  28.731  1.00  0.00    +0.000 F 
ATOM     73  C49 UNL A   1      37.048  30.929  30.784  1.00  0.00    +0.000 C 
ATOM     74  F12 UNL A   1      35.991  31.485  30.177  1.00  0.00    +0.000 F 
ATOM     75  C50 UNL A   1      37.008  30.668  32.145  1.00  0.00    +0.000 C 
ATOM     76  F13 UNL A   1      35.905  30.952  32.852  1.00  0.00    +0.000 F 
ATOM     77  C51 UNL A   1      38.113  30.114  32.774  1.00  0.00    +0.000 C 
ATOM     78  F14 UNL A   1      38.071  29.842  34.085  1.00  0.00    +0.000 F 
ATOM     79  C52 UNL A   1      39.264  29.832  32.042  1.00  0.00    +0.000 C 
ATOM     80  F15 UNL A   1      40.319  29.297  32.675  1.00  0.00    +0.000 F 
ENDBRANCH   69   70
TORSDOF 21
ENDMDL
MODEL 9
REMARK VINA RESULT:     -10.1      3.204      8.749
ROOT
ATOM     33  C23 UNL A   1      39.908  28.873  29.265  1.00  0.00    +0.000 C 
ATOM     34  C24 UNL A   1      40.780  29.835  30.019  1.00  0.00    +0.000 C 
ATOM     35  N5  UNL A   1      42.048  29.734  30.330  1.00  0.00    +0.000 N 
ATOM     36  C25 UNL A   1      42.371  30.915  30.984  1.00  0.00    +0.000 C 
ATOM     37  C26 UNL A   1      43.551  31.272  31.548  1.00  0.00    +0.000 C 
ATOM     49  C33 UNL A   1      44.723  30.435  31.573  1.00  0.00    +0.000 C 
ATOM     50  C34 UNL A   1      45.935  30.669  32.197  1.00  0.00    +0.000 C 
ATOM     51  C35 UNL A   1      46.798  29.611  31.886  1.00  0.00    +0.000 C 
ATOM     52  C36 UNL A   1      46.107  28.694  31.110  1.00  0.00    +0.000 C 
ATOM     53  N6  UNL A   1      44.832  29.208  30.934  1.00  0.00    +0.000 N 
ATOM     54  C37 UNL A   1      46.575  27.446  30.565  1.00  0.00    +0.000 C 
ATOM     66  C44 UNL A   1      45.810  26.568  29.869  1.00  0.00    +0.000 C 
ATOM     67  N7  UNL A   1      44.472  26.667  29.516  1.00  0.00    +0.000 N 
ATOM     68  C45 UNL A   1      44.198  25.580  28.835  1.00  0.00    +0.000 C 
ATOM     69  C46 UNL A   1      42.895  25.156  28.214  1.00  0.00    +0.000 C 
ATOM     81  C53 UNL A   1      41.811  25.942  28.355  1.00  0.00    +0.000 C 
ATOM     82  C54 UNL A   1      40.489  25.663  27.801  1.00  0.00    +0.000 C 
ATOM     83  C55 UNL A   1      39.678  26.699  28.064  1.00  0.00    +0.000 C 
ATOM     84  C56 UNL A   1      40.410  27.697  28.843  1.00  0.00    +0.000 C 
ATOM     85  N8  UNL A   1      41.661  27.150  28.992  1.00  0.00    +0.000 N 
ATOM     86  C57 UNL A   1      45.341  24.673  28.667  1.00  0.00    +0.000 C 
ATOM     87  C58 UNL A   1      46.289  25.306  29.343  1.00  0.00    +0.000 C 
ATOM     88  C59 UNL A   1      41.181  31.738  30.981  1.00  0.00    +0.000 C 
ATOM     89  C60 UNL A   1      40.152  31.091  30.455  1.00  0.00    +0.000 C 
ATOM    119  H25 UNL A   1      46.164  31.480  32.792  1.00  0.00    +0.000 H 
ATOM    120  H26 UNL A   1      47.783  29.529  32.183  1.00  0.00    +0.000 H 
ATOM    121  H27 UNL A   1      44.109  28.767  30.432  1.00  0.00    +0.000 H 
ATOM    122  H28 UNL A   1      40.222  24.807  27.290  1.00  0.00    +0.000 H 
ATOM    123  H29 UNL A   1      38.693  26.779  27.763  1.00  0.00    +0.000 H 
ATOM    124  H30 UNL A   1      42.382  27.582  29.505  1.00  0.00    +0.000 H 
ATOM    125  H31 UNL A   1      45.392  23.778  28.155  1.00  0.00    +0.000 H 
ATOM    126  H32 UNL A   1      47.247  24.945  29.477  1.00  0.00    +0.000 H 
ATOM    127  H33 UNL A   1      41.139  32.704  31.343  1.00  0.00    +0.000 H 
ATOM    128  H34 UNL A   1      39.167  31.390  30.372  1.00  0.00    +0.000 H 
ENDROOT
BRANCH   33   32
ATOM    129  H35 UNL A   1      37.715  28.782  30.800  1.00  0.00    +0.000 H 
ATOM    130  H36 UNL A   1      35.436  29.386  30.232  1.00  0.00    +0.000 H 
ATOM    117  H23 UNL A   1      36.697  30.556  26.394  1.00  0.00    +0.000 H 
ATOM    118  H24 UNL A   1      38.933  29.751  26.887  1.00  0.00    +0.000 H 
ATOM     90  C61 UNL A   1      37.498  29.145  29.858  1.00  0.00    +0.000 C 
ATOM     91  C62 UNL A   1      36.196  29.530  29.548  1.00  0.00    +0.000 C 
ATOM     29  C19 UNL A   1      35.919  30.113  28.307  1.00  0.00    +0.000 C 
ATOM     30  C20 UNL A   1      36.915  30.177  27.329  1.00  0.00    +0.000 C 
ATOM     31  C21 UNL A   1      38.206  29.729  27.618  1.00  0.00    +0.000 C 
ATOM     32  C22 UNL A   1      38.518  29.247  28.900  1.00  0.00    +0.000 C 
BRANCH   29   27
ATOM     27  C18 UNL A   1      34.578  30.655  27.994  1.00  0.00    +0.000 C 
ATOM     28  O5  UNL A   1      34.302  31.808  28.311  1.00  0.00    +0.000 O 
BRANCH   27   26
ATOM     26  N4  UNL A   1      33.638  29.869  27.377  1.00  0.00    +0.000 N 
ATOM    116  H22 UNL A   1      33.126  29.279  27.979  1.00  0.00    +0.000 H 
BRANCH   26   25
ATOM     25  C17 UNL A   1      33.280  29.774  25.971  1.00  0.00    +0.000 C 
ATOM    114  H20 UNL A   1      33.784  30.552  25.438  1.00  0.00    +0.000 H 
ATOM    115  H21 UNL A   1      33.574  28.803  25.632  1.00  0.00    +0.000 H 
BRANCH   25   24
ATOM    113  H19 UNL A   1      31.310  29.381  26.533  1.00  0.00    +0.000 H 
ATOM    112  H18 UNL A   1      31.568  29.511  24.760  1.00  0.00    +0.000 H 
ATOM     24  C16 UNL A   1      31.781  29.909  25.730  1.00  0.00    +0.000 C 
BRANCH   24   23
ATOM    111  H17 UNL A   1      31.896  31.926  25.214  1.00  0.00    +0.000 H 
ATOM    110  H16 UNL A   1      31.138  31.609  26.816  1.00  0.00    +0.000 H 
ATOM     23  C15 UNL A   1      31.217  31.330  25.786  1.00  0.00    +0.000 C 
BRANCH   23   22
ATOM    108  H14 UNL A   1      29.414  30.586  24.964  1.00  0.00    +0.000 H 
ATOM    109  H15 UNL A   1      29.305  32.161  25.831  1.00  0.00    +0.000 H 
ATOM     22  C14 UNL A   1      29.846  31.549  25.141  1.00  0.00    +0.000 C 
BRANCH   22   21
ATOM    106  H12 UNL A   1      30.281  33.268  23.992  1.00  0.00    +0.000 H 
ATOM    107  H13 UNL A   1      30.343  31.688  23.125  1.00  0.00    +0.000 H 
ATOM     21  C13 UNL A   1      29.825  32.316  23.820  1.00  0.00    +0.000 C 
BRANCH   21   20
ATOM    105  H11 UNL A   1      28.638  33.075  22.267  1.00  0.00    +0.000 H 
ATOM     20  C12 UNL A   1      28.461  32.565  23.192  1.00  0.00    +0.000 C 
ATOM    104  H10 UNL A   1      27.875  33.139  23.879  1.00  0.00    +0.000 H 
BRANCH   20   19
ATOM     19  N3  UNL A   1      27.721  31.358  22.863  1.00  0.00    +0.000 N 
ATOM    103  H9  UNL A   1      26.812  31.318  23.240  1.00  0.00    +0.000 H 
BRANCH   19   17
ATOM     17  C11 UNL A   1      28.079  30.260  22.112  1.00  0.00    +0.000 C 
ATOM     18  O4  UNL A   1      27.928  30.297  20.889  1.00  0.00    +0.000 O 
BRANCH   17   16
ATOM    131  H37 UNL A   1      30.725  29.603  22.282  1.00  0.00    +0.000 H 
ATOM    100  H6  UNL A   1      30.274  25.713  23.812  1.00  0.00    +0.000 H 
ATOM    101  H7  UNL A   1      27.926  26.185  24.256  1.00  0.00    +0.000 H 
ATOM     11  C6  UNL A   1      30.651  27.598  22.935  1.00  0.00    +0.000 C 
ATOM     12  C7  UNL A   1      29.863  26.620  23.538  1.00  0.00    +0.000 C 
ATOM     13  C8  UNL A   1      28.510  26.881  23.767  1.00  0.00    +0.000 C 
ATOM     14  C9  UNL A   1      27.949  28.085  23.335  1.00  0.00    +0.000 C 
ATOM     16  C10 UNL A   1      28.732  29.059  22.697  1.00  0.00    +0.000 C 
ATOM     92  C63 UNL A   1      30.107  28.842  22.601  1.00  0.00    +0.000 C 
BRANCH   11   10
ATOM     10  C5  UNL A   1      32.024  27.276  22.491  1.00  0.00    +0.000 C 
ATOM     99  H5  UNL A   1      32.206  27.036  21.503  1.00  0.00    +0.000 H 
BRANCH   10    9
ATOM      9  N2  UNL A   1      32.999  27.296  23.344  1.00  0.00    +0.000 N 
BRANCH    9    8
ATOM     97  H3  UNL A   1      34.472  23.104  22.543  1.00  0.00    +0.000 H 
ATOM     98  H4  UNL A   1      33.632  25.274  21.854  1.00  0.00    +0.000 H 
ATOM    132  H38 UNL A   1      33.591  26.546  25.857  1.00  0.00    +0.000 H 
ATOM    133  H39 UNL A   1      34.447  24.384  26.557  1.00  0.00    +0.000 H 
ATOM      6  C2  UNL A   1      34.290  23.836  23.247  1.00  0.00    +0.000 C 
ATOM      5  C1  UNL A   1      34.520  23.585  24.601  1.00  0.00    +0.000 C 
ATOM      7  C3  UNL A   1      33.811  25.090  22.853  1.00  0.00    +0.000 C 
ATOM      8  C4  UNL A   1      33.569  26.098  23.794  1.00  0.00    +0.000 C 
ATOM     93  C64 UNL A   1      33.789  25.821  25.150  1.00  0.00    +0.000 C 
ATOM     94  C65 UNL A   1      34.273  24.573  25.557  1.00  0.00    +0.000 C 
BRANCH    5    2
ATOM      2  S1  UNL A   1      35.136  22.005  25.103  1.00  0.00    +0.000 S 
ATOM      3  O1  UNL A   1      35.137  21.932  26.543  1.00  0.00    +0.000 O 
ATOM      4  O2  UNL A   1      36.298  21.692  24.303  1.00  0.00    +0.000 O 
BRANCH    2    1
ATOM      1  N1  UNL A   1      33.920  20.957  24.605  1.00  0.00    +0.000 N 
ATOM     95  H1  UNL A   1      34.139  20.010  24.914  1.00  0.00    +0.000 H 
ATOM     96  H2  UNL A   1      33.851  20.975  23.588  1.00  0.00    +0.000 H 
ENDBRANCH    2    1
ENDBRANCH    5    2
ENDBRANCH    9    8
ENDBRANCH   10    9
ENDBRANCH   11   10
BRANCH   14   15
ATOM    102  H8  UNL A   1      26.291  28.968  24.050  1.00  0.00    +0.000 H 
ATOM     15  O3  UNL A   1      26.604  28.237  23.556  1.00  0.00    +0.000 O 
ENDBRANCH   14   15
ENDBRANCH   17   16
ENDBRANCH   19   17
ENDBRANCH   20   19
ENDBRANCH   21   20
ENDBRANCH   22   21
ENDBRANCH   23   22
ENDBRANCH   24   23
ENDBRANCH   25   24
ENDBRANCH   26   25
ENDBRANCH   27   26
ENDBRANCH   29   27
ENDBRANCH   33   32
BRANCH   37   38
ATOM     38  C27 UNL A   1      43.636  32.632  32.178  1.00  0.00    +0.000 C 
ATOM     39  C28 UNL A   1      44.023  33.765  31.447  1.00  0.00    +0.000 C 
ATOM     40  F1  UNL A   1      44.368  33.650  30.155  1.00  0.00    +0.000 F 
ATOM     41  C29 UNL A   1      44.100  35.018  32.052  1.00  0.00    +0.000 C 
ATOM     42  F2  UNL A   1      44.525  36.075  31.347  1.00  0.00    +0.000 F 
ATOM     43  C30 UNL A   1      43.753  35.170  33.386  1.00  0.00    +0.000 C 
ATOM     44  F3  UNL A   1      43.824  36.376  33.966  1.00  0.00    +0.000 F 
ATOM     45  C31 UNL A   1      43.343  34.069  34.122  1.00  0.00    +0.000 C 
ATOM     46  F4  UNL A   1      42.995  34.215  35.407  1.00  0.00    +0.000 F 
ATOM     47  C32 UNL A   1      43.295  32.809  33.528  1.00  0.00    +0.000 C 
ATOM     48  F5  UNL A   1      42.912  31.761  34.273  1.00  0.00    +0.000 F 
ENDBRANCH   37   38
BRANCH   54   55
ATOM     65  F10 UNL A   1      48.700  28.313  28.877  1.00  0.00    +0.000 F 
ATOM     55  C38 UNL A   1      48.012  27.077  30.792  1.00  0.00    +0.000 C 
ATOM     56  C39 UNL A   1      48.393  26.244  31.854  1.00  0.00    +0.000 C 
ATOM     57  F6  UNL A   1      47.476  25.809  32.732  1.00  0.00    +0.000 F 
ATOM     58  C40 UNL A   1      49.724  25.879  32.036  1.00  0.00    +0.000 C 
ATOM     59  F7  UNL A   1      50.070  25.114  33.082  1.00  0.00    +0.000 F 
ATOM     60  C41 UNL A   1      50.693  26.314  31.145  1.00  0.00    +0.000 C 
ATOM     61  F8  UNL A   1      51.972  25.951  31.316  1.00  0.00    +0.000 F 
ATOM     62  C42 UNL A   1      50.337  27.128  30.081  1.00  0.00    +0.000 C 
ATOM     63  F9  UNL A   1      51.271  27.537  29.211  1.00  0.00    +0.000 F 
ATOM     64  C43 UNL A   1      49.012  27.519  29.912  1.00  0.00    +0.000 C 
ENDBRANCH   54   55
BRANCH   69   70
ATOM     70  C47 UNL A   1      42.788  23.886  27.450  1.00  0.00    +0.000 C 
ATOM     71  C48 UNL A   1      43.083  23.840  26.081  1.00  0.00    +0.000 C 
ATOM     72  F11 UNL A   1      43.432  24.962  25.434  1.00  0.00    +0.000 F 
ATOM     73  C49 UNL A   1      42.996  22.647  25.366  1.00  0.00    +0.000 C 
ATOM     74  F12 UNL A   1      43.252  22.638  24.051  1.00  0.00    +0.000 F 
ATOM     75  C50 UNL A   1      42.636  21.474  26.010  1.00  0.00    +0.000 C 
ATOM     76  F13 UNL A   1      42.565  20.325  25.324  1.00  0.00    +0.000 F 
ATOM     77  C51 UNL A   1      42.348  21.493  27.367  1.00  0.00    +0.000 C 
ATOM     78  F14 UNL A   1      42.019  20.357  27.998  1.00  0.00    +0.000 F 
ATOM     79  C52 UNL A   1      42.409  22.690  28.077  1.00  0.00    +0.000 C 
ATOM     80  F15 UNL A   1      42.124  22.680  29.388  1.00  0.00    +0.000 F 
ENDBRANCH   69   70
TORSDOF 21
ENDMDL
MODEL 10
REMARK VINA RESULT:     -10.1     20.247     25.894
ROOT
ATOM     33  C23 UNL A   1      53.119  20.784  11.533  1.00  0.00    +0.000 C 
ATOM     34  C24 UNL A   1      52.887  21.259  12.938  1.00  0.00    +0.000 C 
ATOM     35  N5  UNL A   1      53.702  21.241  13.963  1.00  0.00    +0.000 N 
ATOM     36  C25 UNL A   1      53.010  21.842  15.006  1.00  0.00    +0.000 C 
ATOM     37  C26 UNL A   1      53.403  22.016  16.291  1.00  0.00    +0.000 C 
ATOM     49  C33 UNL A   1      54.668  21.572  16.817  1.00  0.00    +0.000 C 
ATOM     50  C34 UNL A   1      55.123  21.620  18.124  1.00  0.00    +0.000 C 
ATOM     51  C35 UNL A   1      56.438  21.143  18.146  1.00  0.00    +0.000 C 
ATOM     52  C36 UNL A   1      56.786  20.750  16.864  1.00  0.00    +0.000 C 
ATOM     53  N6  UNL A   1      55.687  21.010  16.061  1.00  0.00    +0.000 N 
ATOM     54  C37 UNL A   1      58.028  20.185  16.403  1.00  0.00    +0.000 C 
ATOM     66  C44 UNL A   1      58.265  19.761  15.136  1.00  0.00    +0.000 C 
ATOM     67  N7  UNL A   1      57.421  19.789  14.035  1.00  0.00    +0.000 N 
ATOM     68  C45 UNL A   1      58.111  19.288  13.040  1.00  0.00    +0.000 C 
ATOM     69  C46 UNL A   1      57.691  19.071  11.612  1.00  0.00    +0.000 C 
ATOM     81  C53 UNL A   1      56.438  19.395  11.236  1.00  0.00    +0.000 C 
ATOM     82  C54 UNL A   1      55.897  19.247   9.888  1.00  0.00    +0.000 C 
ATOM     83  C55 UNL A   1      54.652  19.747   9.861  1.00  0.00    +0.000 C 
ATOM     84  C56 UNL A   1      54.290  20.209  11.201  1.00  0.00    +0.000 C 
ATOM     85  N8  UNL A   1      55.402  19.935  11.959  1.00  0.00    +0.000 N 
ATOM     86  C57 UNL A   1      59.482  18.897  13.396  1.00  0.00    +0.000 C 
ATOM     87  C58 UNL A   1      59.513  19.177  14.691  1.00  0.00    +0.000 C 
ATOM     88  C59 UNL A   1      51.729  22.259  14.477  1.00  0.00    +0.000 C 
ATOM     89  C60 UNL A   1      51.577  21.864  13.222  1.00  0.00    +0.000 C 
ATOM    119  H25 UNL A   1      54.585  21.948  18.940  1.00  0.00    +0.000 H 
ATOM    120  H26 UNL A   1      57.047  21.093  18.978  1.00  0.00    +0.000 H 
ATOM    121  H27 UNL A   1      55.634  20.822  15.095  1.00  0.00    +0.000 H 
ATOM    122  H28 UNL A   1      56.393  18.828   9.086  1.00  0.00    +0.000 H 
ATOM    123  H29 UNL A   1      54.046  19.797   9.026  1.00  0.00    +0.000 H 
ATOM    124  H30 UNL A   1      55.452  20.109  12.926  1.00  0.00    +0.000 H 
ATOM    125  H31 UNL A   1      60.225  18.509  12.794  1.00  0.00    +0.000 H 
ATOM    126  H32 UNL A   1      60.324  18.999  15.304  1.00  0.00    +0.000 H 
ATOM    127  H33 UNL A   1      51.024  22.793  15.009  1.00  0.00    +0.000 H 
ATOM    128  H34 UNL A   1      50.755  21.957  12.604  1.00  0.00    +0.000 H 
ENDROOT
BRANCH   33   32
ATOM    129  H35 UNL A   1      51.180  19.133  10.702  1.00  0.00    +0.000 H 
ATOM    130  H36 UNL A   1      49.503  19.498   8.990  1.00  0.00    +0.000 H 
ATOM    117  H23 UNL A   1      50.969  23.392   8.376  1.00  0.00    +0.000 H 
ATOM    118  H24 UNL A   1      52.779  22.952   9.932  1.00  0.00    +0.000 H 
ATOM     90  C61 UNL A   1      51.146  20.033  10.199  1.00  0.00    +0.000 C 
ATOM     91  C62 UNL A   1      50.155  20.255   9.245  1.00  0.00    +0.000 C 
ATOM     29  C19 UNL A   1      50.048  21.507   8.633  1.00  0.00    +0.000 C 
ATOM     30  C20 UNL A   1      51.016  22.487   8.870  1.00  0.00    +0.000 C 
ATOM     31  C21 UNL A   1      52.049  22.240   9.778  1.00  0.00    +0.000 C 
ATOM     32  C22 UNL A   1      52.098  21.024  10.480  1.00  0.00    +0.000 C 
BRANCH   29   27
ATOM     27  C18 UNL A   1      48.929  21.822   7.716  1.00  0.00    +0.000 C 
ATOM     28  O5  UNL A   1      47.921  22.366   8.156  1.00  0.00    +0.000 O 
BRANCH   27   26
ATOM     26  N4  UNL A   1      49.004  21.485   6.387  1.00  0.00    +0.000 N 
ATOM    116  H22 UNL A   1      49.637  22.022   5.855  1.00  0.00    +0.000 H 
BRANCH   26   25
ATOM     25  C17 UNL A   1      48.293  20.457   5.647  1.00  0.00    +0.000 C 
ATOM    114  H20 UNL A   1      47.256  20.509   5.900  1.00  0.00    +0.000 H 
ATOM    115  H21 UNL A   1      48.460  20.639   4.606  1.00  0.00    +0.000 H 
BRANCH   25   24
ATOM    113  H19 UNL A   1      48.125  18.386   5.450  1.00  0.00    +0.000 H 
ATOM    112  H18 UNL A   1      48.817  18.933   7.015  1.00  0.00    +0.000 H 
ATOM     24  C16 UNL A   1      48.798  19.050   5.952  1.00  0.00    +0.000 C 
BRANCH   24   23
ATOM    111  H17 UNL A   1      50.595  19.630   5.066  1.00  0.00    +0.000 H 
ATOM    110  H16 UNL A   1      50.072  17.954   4.664  1.00  0.00    +0.000 H 
ATOM     23  C15 UNL A   1      50.190  18.705   5.418  1.00  0.00    +0.000 C 
BRANCH   23   22
ATOM    108  H14 UNL A   1      52.181  18.422   6.075  1.00  0.00    +0.000 H 
ATOM    109  H15 UNL A   1      50.943  18.656   7.362  1.00  0.00    +0.000 H 
ATOM     22  C14 UNL A   1      51.204  18.183   6.438  1.00  0.00    +0.000 C 
BRANCH   22   21
ATOM    106  H12 UNL A   1      52.068  16.438   7.262  1.00  0.00    +0.000 H 
ATOM    107  H13 UNL A   1      50.267  16.526   7.282  1.00  0.00    +0.000 H 
ATOM     21  C13 UNL A   1      51.172  16.684   6.731  1.00  0.00    +0.000 C 
BRANCH   21   20
ATOM    105  H11 UNL A   1      51.736  14.931   5.728  1.00  0.00    +0.000 H 
ATOM     20  C12 UNL A   1      51.076  15.750   5.532  1.00  0.00    +0.000 C 
ATOM    104  H10 UNL A   1      51.346  16.303   4.656  1.00  0.00    +0.000 H 
BRANCH   20   19
ATOM     19  N3  UNL A   1      49.757  15.178   5.319  1.00  0.00    +0.000 N 
ATOM    103  H9  UNL A   1      49.421  14.633   6.067  1.00  0.00    +0.000 H 
BRANCH   19   17
ATOM     17  C11 UNL A   1      48.899  15.270   4.246  1.00  0.00    +0.000 C 
ATOM     18  O4  UNL A   1      49.302  14.941   3.128  1.00  0.00    +0.000 O 
BRANCH   17   16
ATOM    131  H37 UNL A   1      47.608  17.532   3.425  1.00  0.00    +0.000 H 
ATOM    100  H6  UNL A   1      43.879  16.767   5.209  1.00  0.00    +0.000 H 
ATOM    101  H7  UNL A   1      44.581  14.475   5.640  1.00  0.00    +0.000 H 
ATOM     11  C6  UNL A   1      45.726  17.342   4.360  1.00  0.00    +0.000 C 
ATOM     12  C7  UNL A   1      44.832  16.459   4.964  1.00  0.00    +0.000 C 
ATOM     13  C8  UNL A   1      45.246  15.153   5.237  1.00  0.00    +0.000 C 
ATOM     14  C9  UNL A   1      46.559  14.764   4.962  1.00  0.00    +0.000 C 
ATOM     16  C10 UNL A   1      47.471  15.661   4.383  1.00  0.00    +0.000 C 
ATOM     92  C63 UNL A   1      47.005  16.916   3.990  1.00  0.00    +0.000 C 
BRANCH   11   10
ATOM     10  C5  UNL A   1      45.392  18.779   4.253  1.00  0.00    +0.000 C 
ATOM     99  H5  UNL A   1      45.233  19.339   5.105  1.00  0.00    +0.000 H 
BRANCH   10    9
ATOM      9  N2  UNL A   1      45.300  19.333   3.086  1.00  0.00    +0.000 N 
BRANCH    9    8
ATOM     97  H3  UNL A   1      40.835  18.713   2.841  1.00  0.00    +0.000 H 
ATOM     98  H4  UNL A   1      43.033  18.292   3.780  1.00  0.00    +0.000 H 
ATOM    132  H38 UNL A   1      44.709  21.113   1.159  1.00  0.00    +0.000 H 
ATOM    133  H39 UNL A   1      42.513  21.556   0.224  1.00  0.00    +0.000 H 
ATOM      6  C2  UNL A   1      41.657  19.227   2.487  1.00  0.00    +0.000 C 
ATOM      5  C1  UNL A   1      41.514  20.164   1.463  1.00  0.00    +0.000 C 
ATOM      7  C3  UNL A   1      42.924  18.991   3.029  1.00  0.00    +0.000 C 
ATOM      8  C4  UNL A   1      44.047  19.687   2.568  1.00  0.00    +0.000 C 
ATOM     93  C64 UNL A   1      43.887  20.611   1.527  1.00  0.00    +0.000 C 
ATOM     94  C65 UNL A   1      42.624  20.861   0.979  1.00  0.00    +0.000 C 
BRANCH    5    2
ATOM      2  S1  UNL A   1      39.911  20.475   0.781  1.00  0.00    +0.000 S 
ATOM      3  O1  UNL A   1      39.985  21.605  -0.111  1.00  0.00    +0.000 O 
ATOM      4  O2  UNL A   1      38.936  20.379   1.844  1.00  0.00    +0.000 O 
BRANCH    2    1
ATOM      1  N1  UNL A   1      39.665  19.140  -0.211  1.00  0.00    +0.000 N 
ATOM     95  H1  UNL A   1      39.559  18.305   0.364  1.00  0.00    +0.000 H 
ATOM     96  H2  UNL A   1      40.465  19.027  -0.833  1.00  0.00    +0.000 H 
ENDBRANCH    2    1
ENDBRANCH    5    2
ENDBRANCH    9    8
ENDBRANCH   10    9
ENDBRANCH   11   10
BRANCH   14   15
ATOM    102  H8  UNL A   1      47.427  13.322   6.061  1.00  0.00    +0.000 H 
ATOM     15  O3  UNL A   1      46.894  13.481   5.307  1.00  0.00    +0.000 O 
ENDBRANCH   14   15
ENDBRANCH   17   16
ENDBRANCH   19   17
ENDBRANCH   20   19
ENDBRANCH   21   20
ENDBRANCH   22   21
ENDBRANCH   23   22
ENDBRANCH   24   23
ENDBRANCH   25   24
ENDBRANCH   26   25
ENDBRANCH   27   26
ENDBRANCH   29   27
ENDBRANCH   33   32
BRANCH   37   38
ATOM     38  C27 UNL A   1      52.458  22.725  17.217  1.00  0.00    +0.000 C 
ATOM     39  C28 UNL A   1      51.619  22.028  18.098  1.00  0.00    +0.000 C 
ATOM     40  F1  UNL A   1      51.614  20.686  18.105  1.00  0.00    +0.000 F 
ATOM     41  C29 UNL A   1      50.746  22.706  18.947  1.00  0.00    +0.000 C 
ATOM     42  F2  UNL A   1      49.914  22.016  19.739  1.00  0.00    +0.000 F 
ATOM     43  C30 UNL A   1      50.725  24.092  18.960  1.00  0.00    +0.000 C 
ATOM     44  F3  UNL A   1      49.888  24.744  19.780  1.00  0.00    +0.000 F 
ATOM     45  C31 UNL A   1      51.565  24.804  18.117  1.00  0.00    +0.000 C 
ATOM     46  F4  UNL A   1      51.556  26.144  18.138  1.00  0.00    +0.000 F 
ATOM     47  C32 UNL A   1      52.416  24.128  17.245  1.00  0.00    +0.000 C 
ATOM     48  F5  UNL A   1      53.203  24.846  16.429  1.00  0.00    +0.000 F 
ENDBRANCH   37   38
BRANCH   54   55
ATOM     65  F10 UNL A   1      58.731  17.706  17.617  1.00  0.00    +0.000 F 
ATOM     55  C38 UNL A   1      59.143  20.040  17.397  1.00  0.00    +0.000 C 
ATOM     56  C39 UNL A   1      59.897  21.146  17.814  1.00  0.00    +0.000 C 
ATOM     57  F6  UNL A   1      59.674  22.355  17.277  1.00  0.00    +0.000 F 
ATOM     58  C40 UNL A   1      60.906  21.008  18.763  1.00  0.00    +0.000 C 
ATOM     59  F7  UNL A   1      61.641  22.073  19.116  1.00  0.00    +0.000 F 
ATOM     60  C41 UNL A   1      61.160  19.771  19.335  1.00  0.00    +0.000 C 
ATOM     61  F8  UNL A   1      62.123  19.643  20.258  1.00  0.00    +0.000 F 
ATOM     62  C42 UNL A   1      60.417  18.666  18.947  1.00  0.00    +0.000 C 
ATOM     63  F9  UNL A   1      60.651  17.472  19.509  1.00  0.00    +0.000 F 
ATOM     64  C43 UNL A   1      59.427  18.794  17.977  1.00  0.00    +0.000 C 
ENDBRANCH   54   55
BRANCH   69   70
ATOM     70  C47 UNL A   1      58.635  18.508  10.611  1.00  0.00    +0.000 C 
ATOM     71  C48 UNL A   1      58.731  17.125  10.410  1.00  0.00    +0.000 C 
ATOM     72  F11 UNL A   1      57.993  16.287  11.153  1.00  0.00    +0.000 F 
ATOM     73  C49 UNL A   1      59.606  16.595   9.463  1.00  0.00    +0.000 C 
ATOM     74  F12 UNL A   1      59.702  15.267   9.314  1.00  0.00    +0.000 F 
ATOM     75  C50 UNL A   1      60.382  17.439   8.683  1.00  0.00    +0.000 C 
ATOM     76  F13 UNL A   1      61.213  16.929   7.764  1.00  0.00    +0.000 F 
ATOM     77  C51 UNL A   1      60.296  18.813   8.858  1.00  0.00    +0.000 C 
ATOM     78  F14 UNL A   1      61.029  19.632   8.092  1.00  0.00    +0.000 F 
ATOM     79  C52 UNL A   1      59.442  19.341   9.823  1.00  0.00    +0.000 C 
ATOM     80  F15 UNL A   1      59.379  20.673   9.972  1.00  0.00    +0.000 F 
ENDBRANCH   69   70
TORSDOF 21
ENDMDL
