MODEL 1
REMARK VINA RESULT:      -8.9      0.000      0.000
ROOT
ATOM    129  H26 UNL A   1      15.274  52.721   2.413  1.00  0.00    +0.000 H 
ATOM    130  H27 UNL A   1      18.571  53.230  -1.350  1.00  0.00    +0.000 H 
ATOM    131  H28 UNL A   1      18.095  50.782  -1.928  1.00  0.00    +0.000 H 
ATOM    132  H29 UNL A   1      11.978  50.009   6.004  1.00  0.00    +0.000 H 
ATOM    133  H30 UNL A   1      12.081  52.546   6.327  1.00  0.00    +0.000 H 
ATOM     19  C15 UNL A   1      13.917  53.848   4.582  1.00  0.00    +0.000 C 
ATOM     20  C16 UNL A   1      13.519  52.400   4.579  1.00  0.00    +0.000 C 
ATOM     21  N3  UNL A   1      13.916  51.432   3.791  1.00  0.00    +0.000 N 
ATOM     22  C17 UNL A   1      13.279  50.287   4.249  1.00  0.00    +0.000 C 
ATOM     23  C18 UNL A   1      13.318  49.036   3.734  1.00  0.00    +0.000 C 
ATOM     35  C25 UNL A   1      14.061  48.665   2.558  1.00  0.00    +0.000 C 
ATOM     36  C26 UNL A   1      14.111  47.439   1.918  1.00  0.00    +0.000 C 
ATOM     37  C27 UNL A   1      14.993  47.544   0.837  1.00  0.00    +0.000 C 
ATOM     38  C28 UNL A   1      15.461  48.847   0.780  1.00  0.00    +0.000 C 
ATOM     39  N4  UNL A   1      14.884  49.523   1.842  1.00  0.00    +0.000 N 
ATOM     40  C29 UNL A   1      16.369  49.434  -0.172  1.00  0.00    +0.000 C 
ATOM     52  C36 UNL A   1      16.770  50.728  -0.170  1.00  0.00    +0.000 C 
ATOM     53  N5  UNL A   1      16.418  51.748   0.702  1.00  0.00    +0.000 N 
ATOM     54  C37 UNL A   1      17.072  52.809   0.299  1.00  0.00    +0.000 C 
ATOM     55  C38 UNL A   1      17.053  54.206   0.857  1.00  0.00    +0.000 C 
ATOM     67  C45 UNL A   1      16.260  54.485   1.910  1.00  0.00    +0.000 C 
ATOM     68  C46 UNL A   1      16.132  55.789   2.552  1.00  0.00    +0.000 C 
ATOM     69  C47 UNL A   1      15.285  55.685   3.589  1.00  0.00    +0.000 C 
ATOM     70  C48 UNL A   1      14.787  54.311   3.664  1.00  0.00    +0.000 C 
ATOM     71  N6  UNL A   1      15.416  53.672   2.625  1.00  0.00    +0.000 N 
ATOM     72  C49 UNL A   1      17.937  52.575  -0.866  1.00  0.00    +0.000 C 
ATOM     73  C50 UNL A   1      17.688  51.301  -1.134  1.00  0.00    +0.000 C 
ATOM     74  C51 UNL A   1      12.508  50.669   5.413  1.00  0.00    +0.000 C 
ATOM     75  C52 UNL A   1      12.570  51.975   5.620  1.00  0.00    +0.000 C 
ATOM    124  H21 UNL A   1      13.587  46.593   2.191  1.00  0.00    +0.000 H 
ATOM    125  H22 UNL A   1      15.252  46.781   0.192  1.00  0.00    +0.000 H 
ATOM    126  H23 UNL A   1      15.035  50.471   2.059  1.00  0.00    +0.000 H 
ATOM    127  H24 UNL A   1      16.615  56.652   2.256  1.00  0.00    +0.000 H 
ATOM    128  H25 UNL A   1      15.028  56.451   4.230  1.00  0.00    +0.000 H 
ENDROOT
BRANCH   19   18
ATOM    134  H31 UNL A   1      15.308  55.071   6.516  1.00  0.00    +0.000 H 
ATOM    135  H32 UNL A   1      14.492  56.494   8.301  1.00  0.00    +0.000 H 
ATOM     76  C53 UNL A   1      14.303  55.303   6.572  1.00  0.00    +0.000 C 
ATOM     77  C54 UNL A   1      13.843  56.154   7.573  1.00  0.00    +0.000 C 
ATOM     15  C11 UNL A   1      12.501  56.546   7.592  1.00  0.00    +0.000 C 
ATOM     16  C12 UNL A   1      11.596  55.991   6.685  1.00  0.00    +0.000 C 
ATOM     17  C13 UNL A   1      12.046  55.087   5.720  1.00  0.00    +0.000 C 
ATOM     18  C14 UNL A   1      13.409  54.760   5.637  1.00  0.00    +0.000 C 
ATOM    122  H19 UNL A   1      10.597  56.248   6.727  1.00  0.00    +0.000 H 
ATOM    123  H20 UNL A   1      11.374  54.659   5.064  1.00  0.00    +0.000 H 
BRANCH   15   13
ATOM     13  C10 UNL A   1      12.012  57.541   8.571  1.00  0.00    +0.000 C 
ATOM     14  O2  UNL A   1      11.837  58.704   8.221  1.00  0.00    +0.000 O 
BRANCH   13   12
ATOM    121  H18 UNL A   1      12.412  57.511  10.535  1.00  0.00    +0.000 H 
ATOM     12  N2  UNL A   1      11.774  57.165   9.870  1.00  0.00    +0.000 N 
BRANCH   12   11
ATOM     11  C9  UNL A   1      10.712  56.325  10.399  1.00  0.00    +0.000 C 
ATOM    119  H16 UNL A   1      10.563  56.569  11.430  1.00  0.00    +0.000 H 
ATOM    120  H17 UNL A   1       9.830  56.512   9.821  1.00  0.00    +0.000 H 
BRANCH   11   10
ATOM     10  C8  UNL A   1      11.036  54.840  10.287  1.00  0.00    +0.000 C 
ATOM    117  H14 UNL A   1      10.494  54.323  11.051  1.00  0.00    +0.000 H 
ATOM    118  H15 UNL A   1      10.757  54.545   9.297  1.00  0.00    +0.000 H 
BRANCH   10    9
ATOM      9  C7  UNL A   1      12.518  54.493  10.437  1.00  0.00    +0.000 C 
ATOM    115  H12 UNL A   1      13.090  55.294  10.015  1.00  0.00    +0.000 H 
ATOM    116  H13 UNL A   1      12.687  54.355  11.484  1.00  0.00    +0.000 H 
BRANCH    9    8
ATOM    113  H10 UNL A   1      12.660  52.379  10.387  1.00  0.00    +0.000 H 
ATOM    114  H11 UNL A   1      12.479  53.189   8.799  1.00  0.00    +0.000 H 
ATOM      8  C6  UNL A   1      12.954  53.192   9.759  1.00  0.00    +0.000 C 
BRANCH    8    7
ATOM    111  H8  UNL A   1      14.857  54.043   9.340  1.00  0.00    +0.000 H 
ATOM      7  C5  UNL A   1      14.458  53.060   9.487  1.00  0.00    +0.000 C 
ATOM    112  H9  UNL A   1      14.873  52.557  10.335  1.00  0.00    +0.000 H 
BRANCH    7    6
ATOM    110  H7  UNL A   1      14.861  52.852   7.406  1.00  0.00    +0.000 H 
ATOM    109  H6  UNL A   1      14.086  51.448   8.135  1.00  0.00    +0.000 H 
ATOM      6  C4  UNL A   1      14.824  52.211   8.263  1.00  0.00    +0.000 C 
BRANCH    6    5
ATOM    108  H5  UNL A   1      16.877  52.175   8.660  1.00  0.00    +0.000 H 
ATOM      5  N1  UNL A   1      16.123  51.588   8.422  1.00  0.00    +0.000 N 
BRANCH    5    3
ATOM      3  C3  UNL A   1      16.391  50.254   8.270  1.00  0.00    +0.000 C 
ATOM      4  O1  UNL A   1      16.520  49.852   7.114  1.00  0.00    +0.000 O 
BRANCH    3    2
ATOM      2  C2  UNL A   1      16.526  49.373   9.524  1.00  0.00    +0.000 C 
ATOM    107  H4  UNL A   1      17.546  49.486   9.827  1.00  0.00    +0.000 H 
BRANCH    2    1
ATOM      1  C1  UNL A   1      16.172  47.926   9.155  1.00  0.00    +0.000 C 
ATOM    106  H3  UNL A   1      16.785  47.605   8.340  1.00  0.00    +0.000 H 
ATOM    105  H2  UNL A   1      16.339  47.291  10.000  1.00  0.00    +0.000 H 
ATOM    104  H1  UNL A   1      15.141  47.873   8.868  1.00  0.00    +0.000 H 
ENDBRANCH    2    1
BRANCH    2   78
ATOM    101  C75 UNL A   1      15.321  51.188  12.703  1.00  0.00    +0.000 C 
ATOM    102  F16 UNL A   1      15.808  52.102  13.558  1.00  0.00    +0.000 F 
ATOM    103  C76 UNL A   1      16.173  50.710  11.709  1.00  0.00    +0.000 C 
ATOM    136  H33 UNL A   1      14.070  48.563  10.270  1.00  0.00    +0.000 H 
ATOM    137  H34 UNL A   1      12.594  49.416  11.983  1.00  0.00    +0.000 H 
ATOM     78  C55 UNL A   1      15.718  49.796  10.754  1.00  0.00    +0.000 C 
ATOM     79  C56 UNL A   1      14.407  49.301  10.907  1.00  0.00    +0.000 C 
ATOM     80  C57 UNL A   1      13.552  49.791  11.904  1.00  0.00    +0.000 C 
ATOM     81  C58 UNL A   1      13.985  50.783  12.792  1.00  0.00    +0.000 C 
ATOM    154  H51 UNL A   1      17.152  51.035  11.678  1.00  0.00    +0.000 H 
BRANCH   81   82
ATOM    100  C74 UNL A   1      12.611  50.793  14.857  1.00  0.00    +0.000 C 
ATOM    138  H35 UNL A   1      12.904  53.281  12.632  1.00  0.00    +0.000 H 
ATOM    139  H36 UNL A   1      11.378  54.341  14.189  1.00  0.00    +0.000 H 
ATOM    140  H37 UNL A   1      10.647  53.157  16.180  1.00  0.00    +0.000 H 
ATOM     82  C59 UNL A   1      13.049  51.463  13.699  1.00  0.00    +0.000 C 
ATOM     83  C60 UNL A   1      12.591  52.768  13.471  1.00  0.00    +0.000 C 
ATOM     84  C61 UNL A   1      11.714  53.383  14.372  1.00  0.00    +0.000 C 
ATOM     85  C62 UNL A   1      11.294  52.704  15.516  1.00  0.00    +0.000 C 
ATOM     86  C63 UNL A   1      11.754  51.412  15.759  1.00  0.00    +0.000 C 
ATOM    153  H50 UNL A   1      12.931  49.828  15.038  1.00  0.00    +0.000 H 
BRANCH   86   87
ATOM     87  O3  UNL A   1      11.243  50.779  16.917  1.00  0.00    +0.000 O 
BRANCH   87   88
ATOM     89  O4  UNL A   1       8.964  50.291  16.711  1.00  0.00    +0.000 O 
ATOM     88  C64 UNL A   1      10.115  49.959  16.945  1.00  0.00    +0.000 C 
BRANCH   88   90
ATOM     90  N7  UNL A   1      10.407  48.656  17.259  1.00  0.00    +0.000 N 
ATOM    141  H38 UNL A   1       9.985  48.268  18.060  1.00  0.00    +0.000 H 
BRANCH   90   91
ATOM     91  C65 UNL A   1      11.294  47.817  16.489  1.00  0.00    +0.000 C 
ATOM    142  H39 UNL A   1      11.305  46.845  16.934  1.00  0.00    +0.000 H 
ATOM    143  H40 UNL A   1      12.252  48.293  16.501  1.00  0.00    +0.000 H 
BRANCH   91   92
ATOM    145  H42 UNL A   1      10.014  47.068  15.043  1.00  0.00    +0.000 H 
ATOM     92  C66 UNL A   1      10.902  47.666  15.018  1.00  0.00    +0.000 C 
ATOM    144  H41 UNL A   1      10.792  48.652  14.617  1.00  0.00    +0.000 H 
BRANCH   92   93
ATOM    146  H43 UNL A   1      11.936  45.909  14.483  1.00  0.00    +0.000 H 
ATOM    147  H44 UNL A   1      12.727  47.511  14.079  1.00  0.00    +0.000 H 
ATOM     93  C67 UNL A   1      11.849  46.899  14.086  1.00  0.00    +0.000 C 
BRANCH   93   94
ATOM     97  C71 UNL A   1      11.017  46.282   9.883  1.00  0.00    +0.000 C 
ATOM     98  C72 UNL A   1      12.118  45.694  10.494  1.00  0.00    +0.000 C 
ATOM     99  C73 UNL A   1      12.364  45.921  11.850  1.00  0.00    +0.000 C 
ATOM    148  H45 UNL A   1       9.796  47.952  12.518  1.00  0.00    +0.000 H 
ATOM    149  H46 UNL A   1       9.353  47.536  10.174  1.00  0.00    +0.000 H 
ATOM    150  H47 UNL A   1      10.827  46.112   8.882  1.00  0.00    +0.000 H 
ATOM    151  H48 UNL A   1      12.752  45.091   9.948  1.00  0.00    +0.000 H 
ATOM    152  H49 UNL A   1      13.178  45.472  12.298  1.00  0.00    +0.000 H 
ATOM     94  C68 UNL A   1      11.525  46.750  12.617  1.00  0.00    +0.000 C 
ATOM     95  C69 UNL A   1      10.428  47.337  11.981  1.00  0.00    +0.000 C 
ATOM     96  C70 UNL A   1      10.173  47.101  10.626  1.00  0.00    +0.000 C 
ENDBRANCH   93   94
ENDBRANCH   92   93
ENDBRANCH   91   92
ENDBRANCH   90   91
ENDBRANCH   88   90
ENDBRANCH   87   88
ENDBRANCH   86   87
ENDBRANCH   81   82
ENDBRANCH    2   78
ENDBRANCH    3    2
ENDBRANCH    5    3
ENDBRANCH    6    5
ENDBRANCH    7    6
ENDBRANCH    8    7
ENDBRANCH    9    8
ENDBRANCH   10    9
ENDBRANCH   11   10
ENDBRANCH   12   11
ENDBRANCH   13   12
ENDBRANCH   15   13
ENDBRANCH   19   18
BRANCH   23   24
ATOM     33  C24 UNL A   1      11.247  47.623   3.994  1.00  0.00    +0.000 C 
ATOM     34  F5  UNL A   1      10.718  48.221   2.915  1.00  0.00    +0.000 F 
ATOM     24  C19 UNL A   1      12.530  47.972   4.440  1.00  0.00    +0.000 C 
ATOM     25  C20 UNL A   1      13.031  47.318   5.575  1.00  0.00    +0.000 C 
ATOM     26  F1  UNL A   1      14.258  47.607   6.034  1.00  0.00    +0.000 F 
ATOM     27  C21 UNL A   1      12.288  46.333   6.221  1.00  0.00    +0.000 C 
ATOM     28  F2  UNL A   1      12.807  45.689   7.275  1.00  0.00    +0.000 F 
ATOM     29  C22 UNL A   1      11.019  46.009   5.767  1.00  0.00    +0.000 C 
ATOM     30  F3  UNL A   1      10.303  45.064   6.392  1.00  0.00    +0.000 F 
ATOM     31  C23 UNL A   1      10.495  46.658   4.659  1.00  0.00    +0.000 C 
ATOM     32  F4  UNL A   1       9.265  46.352   4.224  1.00  0.00    +0.000 F 
ENDBRANCH   23   24
BRANCH   40   41
ATOM     41  C30 UNL A   1      16.901  48.554  -1.265  1.00  0.00    +0.000 C 
ATOM     42  C31 UNL A   1      18.085  47.822  -1.105  1.00  0.00    +0.000 C 
ATOM     43  F6  UNL A   1      18.803  47.937   0.022  1.00  0.00    +0.000 F 
ATOM     44  C32 UNL A   1      18.556  46.995  -2.121  1.00  0.00    +0.000 C 
ATOM     45  F7  UNL A   1      19.712  46.336  -1.965  1.00  0.00    +0.000 F 
ATOM     46  C33 UNL A   1      17.838  46.862  -3.300  1.00  0.00    +0.000 C 
ATOM     47  F8  UNL A   1      18.289  46.061  -4.275  1.00  0.00    +0.000 F 
ATOM     48  C34 UNL A   1      16.654  47.565  -3.472  1.00  0.00    +0.000 C 
ATOM     49  F9  UNL A   1      15.954  47.429  -4.607  1.00  0.00    +0.000 F 
ATOM     50  C35 UNL A   1      16.195  48.413  -2.469  1.00  0.00    +0.000 C 
ATOM     51  F10 UNL A   1      15.053  49.089  -2.667  1.00  0.00    +0.000 F 
ENDBRANCH   40   41
BRANCH   55   56
ATOM     65  C44 UNL A   1      19.097  55.675   0.801  1.00  0.00    +0.000 C 
ATOM     66  F15 UNL A   1      19.554  55.076   1.911  1.00  0.00    +0.000 F 
ATOM     56  C39 UNL A   1      17.873  55.282   0.244  1.00  0.00    +0.000 C 
ATOM     57  C40 UNL A   1      17.437  55.943  -0.913  1.00  0.00    +0.000 C 
ATOM     58  F11 UNL A   1      16.282  55.586  -1.492  1.00  0.00    +0.000 F 
ATOM     59  C41 UNL A   1      18.205  56.946  -1.499  1.00  0.00    +0.000 C 
ATOM     60  F12 UNL A   1      17.784  57.535  -2.627  1.00  0.00    +0.000 F 
ATOM     61  C42 UNL A   1      19.409  57.326  -0.926  1.00  0.00    +0.000 C 
ATOM     62  F13 UNL A   1      20.144  58.294  -1.488  1.00  0.00    +0.000 F 
ATOM     63  C43 UNL A   1      19.853  56.696   0.227  1.00  0.00    +0.000 C 
ATOM     64  F14 UNL A   1      21.010  57.068   0.791  1.00  0.00    +0.000 F 
ENDBRANCH   55   56
TORSDOF 25
ENDMDL
MODEL 2
REMARK VINA RESULT:      -8.6     65.266     70.379
ROOT
ATOM    129  H26 UNL A   1      26.736 -12.756  31.857  1.00  0.00    +0.000 H 
ATOM    130  H27 UNL A   1      22.963 -10.156  29.785  1.00  0.00    +0.000 H 
ATOM    131  H28 UNL A   1      22.082  -9.787  32.160  1.00  0.00    +0.000 H 
ATOM    132  H29 UNL A   1      29.473 -15.486  35.878  1.00  0.00    +0.000 H 
ATOM    133  H30 UNL A   1      30.620 -15.487  33.589  1.00  0.00    +0.000 H 
ATOM     19  C15 UNL A   1      29.088 -14.235  31.541  1.00  0.00    +0.000 C 
ATOM     20  C16 UNL A   1      28.776 -14.301  33.009  1.00  0.00    +0.000 C 
ATOM     21  N3  UNL A   1      27.754 -13.808  33.663  1.00  0.00    +0.000 N 
ATOM     22  C17 UNL A   1      27.929 -14.195  34.985  1.00  0.00    +0.000 C 
ATOM     23  C18 UNL A   1      27.170 -13.887  36.062  1.00  0.00    +0.000 C 
ATOM     35  C25 UNL A   1      25.996 -13.055  36.018  1.00  0.00    +0.000 C 
ATOM     36  C26 UNL A   1      25.198 -12.630  37.065  1.00  0.00    +0.000 C 
ATOM     37  C27 UNL A   1      24.151 -11.868  36.535  1.00  0.00    +0.000 C 
ATOM     38  C28 UNL A   1      24.319 -11.786  35.163  1.00  0.00    +0.000 C 
ATOM     39  N4  UNL A   1      25.453 -12.521  34.858  1.00  0.00    +0.000 N 
ATOM     40  C29 UNL A   1      23.506 -11.090  34.198  1.00  0.00    +0.000 C 
ATOM     52  C36 UNL A   1      23.747 -11.045  32.866  1.00  0.00    +0.000 C 
ATOM     53  N5  UNL A   1      24.783 -11.624  32.147  1.00  0.00    +0.000 N 
ATOM     54  C37 UNL A   1      24.574 -11.304  30.893  1.00  0.00    +0.000 C 
ATOM     55  C38 UNL A   1      25.395 -11.641  29.678  1.00  0.00    +0.000 C 
ATOM     67  C45 UNL A   1      26.529 -12.353  29.824  1.00  0.00    +0.000 C 
ATOM     68  C46 UNL A   1      27.428 -12.746  28.745  1.00  0.00    +0.000 C 
ATOM     69  C47 UNL A   1      28.432 -13.477  29.255  1.00  0.00    +0.000 C 
ATOM     70  C48 UNL A   1      28.263 -13.576  30.705  1.00  0.00    +0.000 C 
ATOM     71  N6  UNL A   1      27.109 -12.874  30.954  1.00  0.00    +0.000 N 
ATOM     72  C49 UNL A   1      23.362 -10.503  30.671  1.00  0.00    +0.000 C 
ATOM     73  C50 UNL A   1      22.916 -10.343  31.909  1.00  0.00    +0.000 C 
ATOM     74  C51 UNL A   1      29.128 -15.005  35.033  1.00  0.00    +0.000 C 
ATOM     75  C52 UNL A   1      29.725 -15.047  33.851  1.00  0.00    +0.000 C 
ATOM    124  H21 UNL A   1      25.350 -12.837  38.064  1.00  0.00    +0.000 H 
ATOM    125  H22 UNL A   1      23.382 -11.440  37.076  1.00  0.00    +0.000 H 
ATOM    126  H23 UNL A   1      25.820 -12.646  33.953  1.00  0.00    +0.000 H 
ATOM    127  H24 UNL A   1      27.310 -12.502  27.748  1.00  0.00    +0.000 H 
ATOM    128  H25 UNL A   1      29.199 -13.902  28.711  1.00  0.00    +0.000 H 
ENDROOT
BRANCH   19   18
ATOM    134  H31 UNL A   1      29.175 -16.687  30.469  1.00  0.00    +0.000 H 
ATOM    135  H32 UNL A   1      31.097 -17.915  29.649  1.00  0.00    +0.000 H 
ATOM     76  C53 UNL A   1      30.108 -16.247  30.475  1.00  0.00    +0.000 C 
ATOM     77  C54 UNL A   1      31.204 -16.938  29.965  1.00  0.00    +0.000 C 
ATOM     15  C11 UNL A   1      32.449 -16.308  29.884  1.00  0.00    +0.000 C 
ATOM     16  C12 UNL A   1      32.625 -15.031  30.423  1.00  0.00    +0.000 C 
ATOM     17  C13 UNL A   1      31.539 -14.362  30.992  1.00  0.00    +0.000 C 
ATOM     18  C14 UNL A   1      30.266 -14.953  30.995  1.00  0.00    +0.000 C 
ATOM    122  H19 UNL A   1      33.555 -14.584  30.401  1.00  0.00    +0.000 H 
ATOM    123  H20 UNL A   1      31.674 -13.429  31.413  1.00  0.00    +0.000 H 
BRANCH   15   13
ATOM     13  C10 UNL A   1      33.601 -16.975  29.238  1.00  0.00    +0.000 C 
ATOM     14  O2  UNL A   1      34.645 -17.128  29.864  1.00  0.00    +0.000 O 
BRANCH   13   12
ATOM    121  H18 UNL A   1      33.776 -18.332  27.774  1.00  0.00    +0.000 H 
ATOM     12  N2  UNL A   1      33.503 -17.400  27.937  1.00  0.00    +0.000 N 
BRANCH   12   11
ATOM     11  C9  UNL A   1      33.054 -16.666  26.765  1.00  0.00    +0.000 C 
ATOM    119  H16 UNL A   1      33.337 -17.210  25.889  1.00  0.00    +0.000 H 
ATOM    120  H17 UNL A   1      31.991 -16.560  26.834  1.00  0.00    +0.000 H 
BRANCH   11   10
ATOM     10  C8  UNL A   1      33.657 -15.267  26.691  1.00  0.00    +0.000 C 
ATOM    117  H14 UNL A   1      34.479 -15.223  27.374  1.00  0.00    +0.000 H 
ATOM    118  H15 UNL A   1      33.944 -15.117  25.672  1.00  0.00    +0.000 H 
BRANCH   10    9
ATOM      9  C7  UNL A   1      32.690 -14.133  27.036  1.00  0.00    +0.000 C 
ATOM    115  H12 UNL A   1      32.052 -13.974  26.191  1.00  0.00    +0.000 H 
ATOM    116  H13 UNL A   1      32.164 -14.447  27.913  1.00  0.00    +0.000 H 
BRANCH    9    8
ATOM    113  H10 UNL A   1      32.618 -12.029  27.279  1.00  0.00    +0.000 H 
ATOM    114  H11 UNL A   1      33.715 -12.908  28.390  1.00  0.00    +0.000 H 
ATOM      8  C6  UNL A   1      33.351 -12.799  27.389  1.00  0.00    +0.000 C 
BRANCH    8    7
ATOM    111  H8  UNL A   1      35.445 -12.790  27.024  1.00  0.00    +0.000 H 
ATOM      7  C5  UNL A   1      34.569 -12.419  26.536  1.00  0.00    +0.000 C 
ATOM    112  H9  UNL A   1      34.406 -12.852  25.571  1.00  0.00    +0.000 H 
BRANCH    7    6
ATOM    110  H7  UNL A   1      34.358 -10.671  25.338  1.00  0.00    +0.000 H 
ATOM    109  H6  UNL A   1      35.795 -10.678  26.357  1.00  0.00    +0.000 H 
ATOM      6  C4  UNL A   1      34.753 -10.914  26.303  1.00  0.00    +0.000 C 
BRANCH    6    5
ATOM    108  H5  UNL A   1      33.832 -10.576  28.150  1.00  0.00    +0.000 H 
ATOM      5  N1  UNL A   1      34.040 -10.135  27.295  1.00  0.00    +0.000 N 
BRANCH    5    3
ATOM      3  C3  UNL A   1      33.631  -8.837  27.145  1.00  0.00    +0.000 C 
ATOM      4  O1  UNL A   1      34.377  -8.102  26.497  1.00  0.00    +0.000 O 
BRANCH    3    2
ATOM      2  C2  UNL A   1      32.292  -8.399  27.764  1.00  0.00    +0.000 C 
ATOM    107  H4  UNL A   1      32.250  -7.342  27.602  1.00  0.00    +0.000 H 
BRANCH    2    1
ATOM      1  C1  UNL A   1      32.287  -8.774  29.252  1.00  0.00    +0.000 C 
ATOM    106  H3  UNL A   1      33.293  -8.903  29.591  1.00  0.00    +0.000 H 
ATOM    105  H2  UNL A   1      31.817  -7.995  29.814  1.00  0.00    +0.000 H 
ATOM    104  H1  UNL A   1      31.745  -9.688  29.387  1.00  0.00    +0.000 H 
ENDBRANCH    2    1
BRANCH    2   78
ATOM    101  C75 UNL A   1      29.305  -8.904  25.382  1.00  0.00    +0.000 C 
ATOM    102  F16 UNL A   1      28.737  -8.240  24.362  1.00  0.00    +0.000 F 
ATOM    103  C76 UNL A   1      30.349  -8.279  26.061  1.00  0.00    +0.000 C 
ATOM    136  H33 UNL A   1      30.943 -10.662  28.315  1.00  0.00    +0.000 H 
ATOM    137  H34 UNL A   1      29.147 -11.745  27.114  1.00  0.00    +0.000 H 
ATOM     78  C55 UNL A   1      31.020  -8.933  27.100  1.00  0.00    +0.000 C 
ATOM     79  C56 UNL A   1      30.525 -10.191  27.497  1.00  0.00    +0.000 C 
ATOM     80  C57 UNL A   1      29.479 -10.817  26.805  1.00  0.00    +0.000 C 
ATOM     81  C58 UNL A   1      28.882 -10.199  25.700  1.00  0.00    +0.000 C 
ATOM    154  H51 UNL A   1      30.631  -7.323  25.795  1.00  0.00    +0.000 H 
BRANCH   81   82
ATOM    100  C74 UNL A   1      27.562 -12.232  25.177  1.00  0.00    +0.000 C 
ATOM    138  H35 UNL A   1      27.639  -9.383  23.416  1.00  0.00    +0.000 H 
ATOM    139  H36 UNL A   1      26.074 -10.632  22.048  1.00  0.00    +0.000 H 
ATOM    140  H37 UNL A   1      25.439 -12.891  22.676  1.00  0.00    +0.000 H 
ATOM     82  C59 UNL A   1      27.941 -10.921  24.832  1.00  0.00    +0.000 C 
ATOM     83  C60 UNL A   1      27.381 -10.345  23.684  1.00  0.00    +0.000 C 
ATOM     84  C61 UNL A   1      26.474 -11.064  22.897  1.00  0.00    +0.000 C 
ATOM     85  C62 UNL A   1      26.107 -12.361  23.256  1.00  0.00    +0.000 C 
ATOM     86  C63 UNL A   1      26.648 -12.938  24.403  1.00  0.00    +0.000 C 
ATOM    153  H50 UNL A   1      27.970 -12.676  26.015  1.00  0.00    +0.000 H 
BRANCH   86   87
ATOM     87  O3  UNL A   1      26.258 -14.272  24.669  1.00  0.00    +0.000 O 
BRANCH   87   88
ATOM     89  O4  UNL A   1      25.465 -14.916  26.774  1.00  0.00    +0.000 O 
ATOM     88  C64 UNL A   1      26.335 -14.889  25.919  1.00  0.00    +0.000 C 
BRANCH   88   90
ATOM     90  N7  UNL A   1      27.533 -15.522  26.131  1.00  0.00    +0.000 N 
ATOM    141  H38 UNL A   1      27.823 -15.661  27.062  1.00  0.00    +0.000 H 
BRANCH   90   91
ATOM     91  C65 UNL A   1      28.395 -15.999  25.076  1.00  0.00    +0.000 C 
ATOM    142  H39 UNL A   1      27.828 -16.031  24.170  1.00  0.00    +0.000 H 
ATOM    143  H40 UNL A   1      28.748 -16.962  25.382  1.00  0.00    +0.000 H 
BRANCH   91   92
ATOM    145  H42 UNL A   1      29.463 -14.259  25.422  1.00  0.00    +0.000 H 
ATOM     92  C66 UNL A   1      29.634 -15.137  24.834  1.00  0.00    +0.000 C 
ATOM    144  H41 UNL A   1      30.487 -15.725  25.106  1.00  0.00    +0.000 H 
BRANCH   92   93
ATOM    146  H43 UNL A   1      28.958 -14.683  22.891  1.00  0.00    +0.000 H 
ATOM    147  H44 UNL A   1      30.706 -15.196  23.078  1.00  0.00    +0.000 H 
ATOM     93  C67 UNL A   1      29.885 -14.601  23.418  1.00  0.00    +0.000 C 
BRANCH   93   94
ATOM     97  C71 UNL A   1      31.478 -10.605  22.926  1.00  0.00    +0.000 C 
ATOM     98  C72 UNL A   1      31.848 -11.402  24.003  1.00  0.00    +0.000 C 
ATOM     99  C73 UNL A   1      31.308 -12.683  24.139  1.00  0.00    +0.000 C 
ATOM    148  H45 UNL A   1      29.333 -12.710  21.443  1.00  0.00    +0.000 H 
ATOM    149  H46 UNL A   1      30.290 -10.499  21.193  1.00  0.00    +0.000 H 
ATOM    150  H47 UNL A   1      31.879  -9.660  22.819  1.00  0.00    +0.000 H 
ATOM    151  H48 UNL A   1      32.519 -11.048  24.702  1.00  0.00    +0.000 H 
ATOM    152  H49 UNL A   1      31.596 -13.271  24.936  1.00  0.00    +0.000 H 
ATOM     94  C68 UNL A   1      30.379 -13.188  23.210  1.00  0.00    +0.000 C 
ATOM     95  C69 UNL A   1      30.015 -12.367  22.139  1.00  0.00    +0.000 C 
ATOM     96  C70 UNL A   1      30.564 -11.088  21.995  1.00  0.00    +0.000 C 
ENDBRANCH   93   94
ENDBRANCH   92   93
ENDBRANCH   91   92
ENDBRANCH   90   91
ENDBRANCH   88   90
ENDBRANCH   87   88
ENDBRANCH   86   87
ENDBRANCH   81   82
ENDBRANCH    2   78
ENDBRANCH    3    2
ENDBRANCH    5    3
ENDBRANCH    6    5
ENDBRANCH    7    6
ENDBRANCH    8    7
ENDBRANCH    9    8
ENDBRANCH   10    9
ENDBRANCH   11   10
ENDBRANCH   12   11
ENDBRANCH   13   12
ENDBRANCH   15   13
ENDBRANCH   19   18
BRANCH   23   24
ATOM     33  C24 UNL A   1      28.626 -13.851  38.120  1.00  0.00    +0.000 C 
ATOM     34  F5  UNL A   1      29.239 -12.752  37.653  1.00  0.00    +0.000 F 
ATOM     24  C19 UNL A   1      27.590 -14.450  37.388  1.00  0.00    +0.000 C 
ATOM     25  C20 UNL A   1      26.989 -15.599  37.922  1.00  0.00    +0.000 C 
ATOM     26  F1  UNL A   1      25.986 -16.201  37.266  1.00  0.00    +0.000 F 
ATOM     27  C21 UNL A   1      27.389 -16.112  39.153  1.00  0.00    +0.000 C 
ATOM     28  F2  UNL A   1      26.767 -17.183  39.665  1.00  0.00    +0.000 F 
ATOM     29  C22 UNL A   1      28.420 -15.507  39.856  1.00  0.00    +0.000 C 
ATOM     30  F3  UNL A   1      28.807 -16.004  41.039  1.00  0.00    +0.000 F 
ATOM     31  C23 UNL A   1      29.044 -14.383  39.338  1.00  0.00    +0.000 C 
ATOM     32  F4  UNL A   1      30.046 -13.803  40.012  1.00  0.00    +0.000 F 
ENDBRANCH   23   24
BRANCH   40   41
ATOM     41  C30 UNL A   1      22.310 -10.340  34.704  1.00  0.00    +0.000 C 
ATOM     42  C31 UNL A   1      21.030 -10.911  34.698  1.00  0.00    +0.000 C 
ATOM     43  F6  UNL A   1      20.840 -12.135  34.184  1.00  0.00    +0.000 F 
ATOM     44  C32 UNL A   1      19.932 -10.209  35.189  1.00  0.00    +0.000 C 
ATOM     45  F7  UNL A   1      18.710 -10.757  35.135  1.00  0.00    +0.000 F 
ATOM     46  C33 UNL A   1      20.098  -8.939  35.720  1.00  0.00    +0.000 C 
ATOM     47  F8  UNL A   1      19.042  -8.267  36.197  1.00  0.00    +0.000 F 
ATOM     48  C34 UNL A   1      21.359  -8.362  35.751  1.00  0.00    +0.000 C 
ATOM     49  F9  UNL A   1      21.523  -7.138  36.273  1.00  0.00    +0.000 F 
ATOM     50  C35 UNL A   1      22.454  -9.050  35.237  1.00  0.00    +0.000 C 
ATOM     51  F10 UNL A   1      23.660  -8.462  35.270  1.00  0.00    +0.000 F 
ENDBRANCH   40   41
BRANCH   55   56
ATOM     65  C44 UNL A   1      25.563 -10.039  27.743  1.00  0.00    +0.000 C 
ATOM     66  F15 UNL A   1      26.508  -9.350  28.399  1.00  0.00    +0.000 F 
ATOM     56  C39 UNL A   1      24.985 -11.173  28.330  1.00  0.00    +0.000 C 
ATOM     57  C40 UNL A   1      23.998 -11.855  27.604  1.00  0.00    +0.000 C 
ATOM     58  F11 UNL A   1      23.432 -12.957  28.118  1.00  0.00    +0.000 F 
ATOM     59  C41 UNL A   1      23.615 -11.428  26.336  1.00  0.00    +0.000 C 
ATOM     60  F12 UNL A   1      22.696 -12.120  25.647  1.00  0.00    +0.000 F 
ATOM     61  C42 UNL A   1      24.192 -10.298  25.777  1.00  0.00    +0.000 C 
ATOM     62  F13 UNL A   1      23.820  -9.885  24.559  1.00  0.00    +0.000 F 
ATOM     63  C43 UNL A   1      25.161  -9.599  26.483  1.00  0.00    +0.000 C 
ATOM     64  F14 UNL A   1      25.713  -8.499  25.953  1.00  0.00    +0.000 F 
ENDBRANCH   55   56
TORSDOF 25
ENDMDL
MODEL 3
REMARK VINA RESULT:      -8.5     22.888     29.037
ROOT
ATOM    129  H26 UNL A   1      11.299  25.160   3.615  1.00  0.00    +0.000 H 
ATOM    130  H27 UNL A   1       9.919  22.715   7.786  1.00  0.00    +0.000 H 
ATOM    131  H28 UNL A   1      11.419  20.794   7.004  1.00  0.00    +0.000 H 
ATOM    132  H29 UNL A   1      13.523  25.775  -1.464  1.00  0.00    +0.000 H 
ATOM    133  H30 UNL A   1      12.411  27.871  -0.503  1.00  0.00    +0.000 H 
ATOM     19  C15 UNL A   1      11.138  27.443   2.008  1.00  0.00    +0.000 C 
ATOM     20  C16 UNL A   1      11.983  26.473   1.231  1.00  0.00    +0.000 C 
ATOM     21  N3  UNL A   1      12.318  25.243   1.527  1.00  0.00    +0.000 N 
ATOM     22  C17 UNL A   1      13.064  24.785   0.449  1.00  0.00    +0.000 C 
ATOM     23  C18 UNL A   1      13.685  23.592   0.298  1.00  0.00    +0.000 C 
ATOM     35  C25 UNL A   1      13.682  22.544   1.286  1.00  0.00    +0.000 C 
ATOM     36  C26 UNL A   1      14.337  21.326   1.255  1.00  0.00    +0.000 C 
ATOM     37  C27 UNL A   1      14.010  20.623   2.420  1.00  0.00    +0.000 C 
ATOM     38  C28 UNL A   1      13.183  21.420   3.194  1.00  0.00    +0.000 C 
ATOM     39  N4  UNL A   1      12.987  22.595   2.486  1.00  0.00    +0.000 N 
ATOM     40  C29 UNL A   1      12.610  21.134   4.485  1.00  0.00    +0.000 C 
ATOM     52  C36 UNL A   1      11.818  21.977   5.190  1.00  0.00    +0.000 C 
ATOM     53  N5  UNL A   1      11.393  23.256   4.858  1.00  0.00    +0.000 N 
ATOM     54  C37 UNL A   1      10.639  23.654   5.852  1.00  0.00    +0.000 C 
ATOM     55  C38 UNL A   1       9.931  24.968   6.040  1.00  0.00    +0.000 C 
ATOM     67  C45 UNL A   1      10.060  25.927   5.103  1.00  0.00    +0.000 C 
ATOM     68  C46 UNL A   1       9.442  27.248   5.151  1.00  0.00    +0.000 C 
ATOM     69  C47 UNL A   1       9.758  27.920   4.032  1.00  0.00    +0.000 C 
ATOM     70  C48 UNL A   1      10.628  27.086   3.202  1.00  0.00    +0.000 C 
ATOM     71  N6  UNL A   1      10.757  25.923   3.920  1.00  0.00    +0.000 N 
ATOM     72  C49 UNL A   1      10.480  22.659   6.922  1.00  0.00    +0.000 C 
ATOM     73  C50 UNL A   1      11.248  21.670   6.486  1.00  0.00    +0.000 C 
ATOM     74  C51 UNL A   1      13.093  25.852  -0.529  1.00  0.00    +0.000 C 
ATOM     75  C52 UNL A   1      12.495  26.940  -0.067  1.00  0.00    +0.000 C 
ATOM    124  H21 UNL A   1      14.960  20.993   0.503  1.00  0.00    +0.000 H 
ATOM    125  H22 UNL A   1      14.329  19.672   2.661  1.00  0.00    +0.000 H 
ATOM    126  H23 UNL A   1      12.437  23.353   2.788  1.00  0.00    +0.000 H 
ATOM    127  H24 UNL A   1       8.857  27.607   5.922  1.00  0.00    +0.000 H 
ATOM    128  H25 UNL A   1       9.437  28.872   3.796  1.00  0.00    +0.000 H 
ENDROOT
BRANCH   19   18
ATOM    134  H31 UNL A   1      12.235  29.815   2.593  1.00  0.00    +0.000 H 
ATOM    135  H32 UNL A   1      11.652  32.006   1.735  1.00  0.00    +0.000 H 
ATOM     76  C53 UNL A   1      11.497  29.909   1.878  1.00  0.00    +0.000 C 
ATOM     77  C54 UNL A   1      11.192  31.163   1.356  1.00  0.00    +0.000 C 
ATOM     15  C11 UNL A   1      10.261  31.280   0.320  1.00  0.00    +0.000 C 
ATOM     16  C12 UNL A   1       9.547  30.159  -0.110  1.00  0.00    +0.000 C 
ATOM     17  C13 UNL A   1       9.807  28.910   0.458  1.00  0.00    +0.000 C 
ATOM     18  C14 UNL A   1      10.806  28.770   1.435  1.00  0.00    +0.000 C 
ATOM    122  H19 UNL A   1       8.828  30.254  -0.846  1.00  0.00    +0.000 H 
ATOM    123  H20 UNL A   1       9.263  28.086   0.158  1.00  0.00    +0.000 H 
BRANCH   15   13
ATOM     13  C10 UNL A   1      10.007  32.582  -0.333  1.00  0.00    +0.000 C 
ATOM     14  O2  UNL A   1       9.001  33.222  -0.044  1.00  0.00    +0.000 O 
BRANCH   13   12
ATOM    121  H18 UNL A   1      10.685  32.810  -2.205  1.00  0.00    +0.000 H 
ATOM     12  N2  UNL A   1      10.885  33.059  -1.275  1.00  0.00    +0.000 N 
BRANCH   12   11
ATOM     11  C9  UNL A   1      12.070  33.880  -1.087  1.00  0.00    +0.000 C 
ATOM    119  H16 UNL A   1      11.976  34.761  -1.687  1.00  0.00    +0.000 H 
ATOM    120  H17 UNL A   1      12.139  34.121  -0.046  1.00  0.00    +0.000 H 
BRANCH   11   10
ATOM     10  C8  UNL A   1      13.350  33.151  -1.481  1.00  0.00    +0.000 C 
ATOM    117  H14 UNL A   1      13.115  32.471  -2.272  1.00  0.00    +0.000 H 
ATOM    118  H15 UNL A   1      14.051  33.907  -1.767  1.00  0.00    +0.000 H 
BRANCH   10    9
ATOM      9  C7  UNL A   1      14.010  32.358  -0.352  1.00  0.00    +0.000 C 
ATOM    115  H12 UNL A   1      14.895  32.882  -0.053  1.00  0.00    +0.000 H 
ATOM    116  H13 UNL A   1      13.278  32.281   0.424  1.00  0.00    +0.000 H 
BRANCH    9    8
ATOM    113  H10 UNL A   1      15.308  30.965  -1.282  1.00  0.00    +0.000 H 
ATOM    114  H11 UNL A   1      14.509  30.407   0.222  1.00  0.00    +0.000 H 
ATOM      8  C6  UNL A   1      14.406  30.924  -0.710  1.00  0.00    +0.000 C 
BRANCH    8    7
ATOM    111  H8  UNL A   1      13.053  29.299  -0.928  1.00  0.00    +0.000 H 
ATOM      7  C5  UNL A   1      13.368  30.134  -1.518  1.00  0.00    +0.000 C 
ATOM    112  H9  UNL A   1      12.576  30.819  -1.740  1.00  0.00    +0.000 H 
BRANCH    7    6
ATOM    110  H7  UNL A   1      13.753  28.538  -2.874  1.00  0.00    +0.000 H 
ATOM    109  H6  UNL A   1      14.892  29.876  -2.994  1.00  0.00    +0.000 H 
ATOM      6  C4  UNL A   1      13.865  29.603  -2.868  1.00  0.00    +0.000 C 
BRANCH    6    5
ATOM    108  H5  UNL A   1      13.067  31.127  -4.057  1.00  0.00    +0.000 H 
ATOM      5  N1  UNL A   1      13.093  30.148  -3.967  1.00  0.00    +0.000 N 
BRANCH    5    3
ATOM      3  C3  UNL A   1      12.397  29.415  -4.891  1.00  0.00    +0.000 C 
ATOM      4  O1  UNL A   1      11.629  30.044  -5.620  1.00  0.00    +0.000 O 
BRANCH    3    2
ATOM      2  C2  UNL A   1      12.628  27.896  -4.966  1.00  0.00    +0.000 C 
ATOM    107  H4  UNL A   1      13.515  27.727  -4.393  1.00  0.00    +0.000 H 
BRANCH    2    1
ATOM      1  C1  UNL A   1      12.784  27.490  -6.438  1.00  0.00    +0.000 C 
ATOM    106  H3  UNL A   1      12.658  28.350  -7.061  1.00  0.00    +0.000 H 
ATOM    105  H2  UNL A   1      13.759  27.077  -6.593  1.00  0.00    +0.000 H 
ATOM    104  H1  UNL A   1      12.043  26.758  -6.686  1.00  0.00    +0.000 H 
ENDBRANCH    2    1
BRANCH    2   78
ATOM    101  C75 UNL A   1      10.574  24.852  -3.796  1.00  0.00    +0.000 C 
ATOM    102  F16 UNL A   1      10.520  23.538  -4.069  1.00  0.00    +0.000 F 
ATOM    103  C76 UNL A   1      11.429  25.640  -4.564  1.00  0.00    +0.000 C 
ATOM    136  H33 UNL A   1      10.762  28.584  -3.152  1.00  0.00    +0.000 H 
ATOM    137  H34 UNL A   1       9.299  27.204  -1.811  1.00  0.00    +0.000 H 
ATOM     78  C55 UNL A   1      11.574  27.006  -4.302  1.00  0.00    +0.000 C 
ATOM     79  C56 UNL A   1      10.742  27.565  -3.311  1.00  0.00    +0.000 C 
ATOM     80  C57 UNL A   1       9.888  26.766  -2.537  1.00  0.00    +0.000 C 
ATOM     81  C58 UNL A   1       9.827  25.382  -2.738  1.00  0.00    +0.000 C 
ATOM    154  H51 UNL A   1      11.963  25.210  -5.336  1.00  0.00    +0.000 H 
BRANCH   81   82
ATOM    100  C74 UNL A   1       9.621  24.326  -0.504  1.00  0.00    +0.000 C 
ATOM    138  H35 UNL A   1       7.524  23.966  -3.093  1.00  0.00    +0.000 H 
ATOM    139  H36 UNL A   1       6.390  22.548  -1.487  1.00  0.00    +0.000 H 
ATOM    140  H37 UNL A   1       7.296  22.271   0.750  1.00  0.00    +0.000 H 
ATOM     82  C59 UNL A   1       9.111  24.502  -1.804  1.00  0.00    +0.000 C 
ATOM     83  C60 UNL A   1       7.920  23.847  -2.148  1.00  0.00    +0.000 C 
ATOM     84  C61 UNL A   1       7.262  23.032  -1.219  1.00  0.00    +0.000 C 
ATOM     85  C62 UNL A   1       7.780  22.872   0.066  1.00  0.00    +0.000 C 
ATOM     86  C63 UNL A   1       8.956  23.530   0.422  1.00  0.00    +0.000 C 
ATOM    153  H50 UNL A   1      10.500  24.794  -0.235  1.00  0.00    +0.000 H 
BRANCH   86   87
ATOM     87  O3  UNL A   1       9.436  23.277   1.729  1.00  0.00    +0.000 O 
BRANCH   87   88
ATOM     89  O4  UNL A   1       7.821  23.076   3.409  1.00  0.00    +0.000 O 
ATOM     88  C64 UNL A   1       8.720  22.614   2.726  1.00  0.00    +0.000 C 
BRANCH   88   90
ATOM     90  N7  UNL A   1       9.111  21.309   2.889  1.00  0.00    +0.000 N 
ATOM    141  H38 UNL A   1       9.766  21.108   3.597  1.00  0.00    +0.000 H 
BRANCH   90   91
ATOM     91  C65 UNL A   1       8.622  20.212   2.089  1.00  0.00    +0.000 C 
ATOM    142  H39 UNL A   1       7.901  20.596   1.399  1.00  0.00    +0.000 H 
ATOM    143  H40 UNL A   1       8.209  19.497   2.770  1.00  0.00    +0.000 H 
BRANCH   91   92
ATOM    145  H42 UNL A   1      10.239  18.918   2.031  1.00  0.00    +0.000 H 
ATOM     92  C66 UNL A   1       9.704  19.479   1.293  1.00  0.00    +0.000 C 
ATOM    144  H41 UNL A   1       9.207  18.906   0.537  1.00  0.00    +0.000 H 
BRANCH   92   93
ATOM    146  H43 UNL A   1      11.717  20.049   1.046  1.00  0.00    +0.000 H 
ATOM    147  H44 UNL A   1      10.436  21.317   0.723  1.00  0.00    +0.000 H 
ATOM     93  C67 UNL A   1      10.785  20.314   0.594  1.00  0.00    +0.000 C 
BRANCH   93   94
ATOM     97  C71 UNL A   1      11.485  19.857  -3.654  1.00  0.00    +0.000 C 
ATOM     98  C72 UNL A   1      12.435  19.460  -2.720  1.00  0.00    +0.000 C 
ATOM     99  C73 UNL A   1      12.182  19.631  -1.356  1.00  0.00    +0.000 C 
ATOM    148  H45 UNL A   1       9.160  21.043  -1.553  1.00  0.00    +0.000 H 
ATOM    149  H46 UNL A   1       9.586  20.723  -3.916  1.00  0.00    +0.000 H 
ATOM    150  H47 UNL A   1      11.665  19.728  -4.663  1.00  0.00    +0.000 H 
ATOM    151  H48 UNL A   1      13.324  19.042  -3.032  1.00  0.00    +0.000 H 
ATOM    152  H49 UNL A   1      12.888  19.324  -0.670  1.00  0.00    +0.000 H 
ATOM     94  C68 UNL A   1      10.984  20.212  -0.901  1.00  0.00    +0.000 C 
ATOM     95  C69 UNL A   1      10.047  20.610  -1.858  1.00  0.00    +0.000 C 
ATOM     96  C70 UNL A   1      10.293  20.430  -3.224  1.00  0.00    +0.000 C 
ENDBRANCH   93   94
ENDBRANCH   92   93
ENDBRANCH   91   92
ENDBRANCH   90   91
ENDBRANCH   88   90
ENDBRANCH   87   88
ENDBRANCH   86   87
ENDBRANCH   81   82
ENDBRANCH    2   78
ENDBRANCH    3    2
ENDBRANCH    5    3
ENDBRANCH    6    5
ENDBRANCH    7    6
ENDBRANCH    8    7
ENDBRANCH    9    8
ENDBRANCH   10    9
ENDBRANCH   11   10
ENDBRANCH   12   11
ENDBRANCH   13   12
ENDBRANCH   15   13
ENDBRANCH   19   18
BRANCH   23   24
ATOM     33  C24 UNL A   1      15.815  23.549  -1.050  1.00  0.00    +0.000 C 
ATOM     34  F5  UNL A   1      16.499  23.925   0.042  1.00  0.00    +0.000 F 
ATOM     24  C19 UNL A   1      14.427  23.356  -0.984  1.00  0.00    +0.000 C 
ATOM     25  C20 UNL A   1      13.762  22.967  -2.156  1.00  0.00    +0.000 C 
ATOM     26  F1  UNL A   1      12.437  22.757  -2.142  1.00  0.00    +0.000 F 
ATOM     27  C21 UNL A   1      14.463  22.751  -3.340  1.00  0.00    +0.000 C 
ATOM     28  F2  UNL A   1      13.813  22.334  -4.435  1.00  0.00    +0.000 F 
ATOM     29  C22 UNL A   1      15.834  22.955  -3.384  1.00  0.00    +0.000 C 
ATOM     30  F3  UNL A   1      16.507  22.752  -4.525  1.00  0.00    +0.000 F 
ATOM     31  C23 UNL A   1      16.509  23.360  -2.242  1.00  0.00    +0.000 C 
ATOM     32  F4  UNL A   1      17.832  23.566  -2.285  1.00  0.00    +0.000 F 
ENDBRANCH   23   24
BRANCH   40   41
ATOM     41  C30 UNL A   1      12.929  19.808   5.111  1.00  0.00    +0.000 C 
ATOM     42  C31 UNL A   1      14.046  19.639   5.940  1.00  0.00    +0.000 C 
ATOM     43  F6  UNL A   1      14.892  20.659   6.149  1.00  0.00    +0.000 F 
ATOM     44  C32 UNL A   1      14.318  18.407   6.529  1.00  0.00    +0.000 C 
ATOM     45  F7  UNL A   1      15.415  18.256   7.285  1.00  0.00    +0.000 F 
ATOM     46  C33 UNL A   1      13.465  17.334   6.325  1.00  0.00    +0.000 C 
ATOM     47  F8  UNL A   1      13.725  16.151   6.898  1.00  0.00    +0.000 F 
ATOM     48  C34 UNL A   1      12.344  17.484   5.521  1.00  0.00    +0.000 C 
ATOM     49  F9  UNL A   1      11.513  16.449   5.331  1.00  0.00    +0.000 F 
ATOM     50  C35 UNL A   1      12.083  18.707   4.910  1.00  0.00    +0.000 C 
ATOM     51  F10 UNL A   1      10.998  18.820   4.129  1.00  0.00    +0.000 F 
ENDBRANCH   40   41
BRANCH   55   56
ATOM     65  C44 UNL A   1       9.715  25.640   8.457  1.00  0.00    +0.000 C 
ATOM     66  F15 UNL A   1      11.044  25.809   8.526  1.00  0.00    +0.000 F 
ATOM     56  C39 UNL A   1       9.120  25.229   7.256  1.00  0.00    +0.000 C 
ATOM     57  C40 UNL A   1       7.728  25.063   7.238  1.00  0.00    +0.000 C 
ATOM     58  F11 UNL A   1       7.114  24.690   6.106  1.00  0.00    +0.000 F 
ATOM     59  C41 UNL A   1       6.960  25.314   8.372  1.00  0.00    +0.000 C 
ATOM     60  F12 UNL A   1       5.627  25.185   8.317  1.00  0.00    +0.000 F 
ATOM     61  C42 UNL A   1       7.569  25.711   9.553  1.00  0.00    +0.000 C 
ATOM     62  F13 UNL A   1       6.830  25.948  10.644  1.00  0.00    +0.000 F 
ATOM     63  C43 UNL A   1       8.947  25.868   9.598  1.00  0.00    +0.000 C 
ATOM     64  F14 UNL A   1       9.542  26.240  10.739  1.00  0.00    +0.000 F 
ENDBRANCH   55   56
TORSDOF 25
ENDMDL
MODEL 4
REMARK VINA RESULT:      -8.5     20.154     25.943
ROOT
ATOM    129  H26 UNL A   1       9.403  29.869   0.181  1.00  0.00    +0.000 H 
ATOM    130  H27 UNL A   1      12.654  33.288  -1.557  1.00  0.00    +0.000 H 
ATOM    131  H28 UNL A   1      10.958  33.772  -3.412  1.00  0.00    +0.000 H 
ATOM    132  H29 UNL A   1       4.964  26.492   0.053  1.00  0.00    +0.000 H 
ATOM    133  H30 UNL A   1       6.411  26.307   2.157  1.00  0.00    +0.000 H 
ATOM     19  C15 UNL A   1       8.755  27.922   2.080  1.00  0.00    +0.000 C 
ATOM     20  C16 UNL A   1       7.635  27.883   1.080  1.00  0.00    +0.000 C 
ATOM     21  N3  UNL A   1       7.486  28.569  -0.026  1.00  0.00    +0.000 N 
ATOM     22  C17 UNL A   1       6.305  28.114  -0.596  1.00  0.00    +0.000 C 
ATOM     23  C18 UNL A   1       5.687  28.549  -1.719  1.00  0.00    +0.000 C 
ATOM     35  C25 UNL A   1       6.174  29.619  -2.551  1.00  0.00    +0.000 C 
ATOM     36  C26 UNL A   1       5.586  30.178  -3.672  1.00  0.00    +0.000 C 
ATOM     37  C27 UNL A   1       6.444  31.165  -4.170  1.00  0.00    +0.000 C 
ATOM     38  C28 UNL A   1       7.547  31.248  -3.336  1.00  0.00    +0.000 C 
ATOM     39  N4  UNL A   1       7.370  30.292  -2.349  1.00  0.00    +0.000 N 
ATOM     40  C29 UNL A   1       8.681  32.131  -3.431  1.00  0.00    +0.000 C 
ATOM     52  C36 UNL A   1       9.719  32.162  -2.562  1.00  0.00    +0.000 C 
ATOM     53  N5  UNL A   1       9.929  31.391  -1.427  1.00  0.00    +0.000 N 
ATOM     54  C37 UNL A   1      11.076  31.785  -0.932  1.00  0.00    +0.000 C 
ATOM     55  C38 UNL A   1      11.788  31.312   0.307  1.00  0.00    +0.000 C 
ATOM     67  C45 UNL A   1      11.216  30.366   1.076  1.00  0.00    +0.000 C 
ATOM     68  C46 UNL A   1      11.780  29.817   2.304  1.00  0.00    +0.000 C 
ATOM     69  C47 UNL A   1      10.956  28.870   2.780  1.00  0.00    +0.000 C 
ATOM     70  C48 UNL A   1       9.788  28.769   1.905  1.00  0.00    +0.000 C 
ATOM     71  N6  UNL A   1      10.026  29.698   0.923  1.00  0.00    +0.000 N 
ATOM     72  C49 UNL A   1      11.740  32.837  -1.714  1.00  0.00    +0.000 C 
ATOM     73  C50 UNL A   1      10.854  33.056  -2.676  1.00  0.00    +0.000 C 
ATOM     74  C51 UNL A   1       5.800  27.061   0.260  1.00  0.00    +0.000 C 
ATOM     75  C52 UNL A   1       6.550  26.924   1.343  1.00  0.00    +0.000 C 
ATOM    124  H21 UNL A   1       4.672  29.913  -4.071  1.00  0.00    +0.000 H 
ATOM    125  H22 UNL A   1       6.282  31.734  -5.015  1.00  0.00    +0.000 H 
ATOM    126  H23 UNL A   1       8.000  30.116  -1.613  1.00  0.00    +0.000 H 
ATOM    127  H24 UNL A   1      12.671  30.110   2.737  1.00  0.00    +0.000 H 
ATOM    128  H25 UNL A   1      11.121  28.304   3.627  1.00  0.00    +0.000 H 
ENDROOT
BRANCH   19   18
ATOM    134  H31 UNL A   1       8.187  28.440   4.645  1.00  0.00    +0.000 H 
ATOM    135  H32 UNL A   1       8.279  26.943   6.549  1.00  0.00    +0.000 H 
ATOM     76  C53 UNL A   1       8.438  27.448   4.509  1.00  0.00    +0.000 C 
ATOM     77  C54 UNL A   1       8.450  26.581   5.598  1.00  0.00    +0.000 C 
ATOM     15  C11 UNL A   1       8.696  25.219   5.401  1.00  0.00    +0.000 C 
ATOM     16  C12 UNL A   1       9.050  24.746   4.135  1.00  0.00    +0.000 C 
ATOM     17  C13 UNL A   1       9.101  25.628   3.054  1.00  0.00    +0.000 C 
ATOM     18  C14 UNL A   1       8.765  26.980   3.227  1.00  0.00    +0.000 C 
ATOM    122  H19 UNL A   1       9.274  23.747   4.000  1.00  0.00    +0.000 H 
ATOM    123  H20 UNL A   1       9.385  25.285   2.123  1.00  0.00    +0.000 H 
BRANCH   15   13
ATOM     13  C10 UNL A   1       8.597  24.257   6.521  1.00  0.00    +0.000 C 
ATOM     14  O2  UNL A   1       9.619  23.805   7.027  1.00  0.00    +0.000 O 
BRANCH   13   12
ATOM    121  H18 UNL A   1       7.076  22.962   6.686  1.00  0.00    +0.000 H 
ATOM     12  N2  UNL A   1       7.364  23.858   6.973  1.00  0.00    +0.000 N 
BRANCH   12   11
ATOM     11  C9  UNL A   1       6.423  24.577   7.817  1.00  0.00    +0.000 C 
ATOM    119  H16 UNL A   1       5.981  23.886   8.505  1.00  0.00    +0.000 H 
ATOM    120  H17 UNL A   1       6.965  25.346   8.329  1.00  0.00    +0.000 H 
BRANCH   11   10
ATOM     10  C8  UNL A   1       5.315  25.246   7.012  1.00  0.00    +0.000 C 
ATOM    117  H14 UNL A   1       4.425  25.245   7.606  1.00  0.00    +0.000 H 
ATOM    118  H15 UNL A   1       5.666  26.229   6.777  1.00  0.00    +0.000 H 
BRANCH   10    9
ATOM      9  C7  UNL A   1       4.996  24.573   5.676  1.00  0.00    +0.000 C 
ATOM    115  H12 UNL A   1       5.641  23.725   5.571  1.00  0.00    +0.000 H 
ATOM    116  H13 UNL A   1       3.959  24.317   5.712  1.00  0.00    +0.000 H 
BRANCH    9    8
ATOM    113  H10 UNL A   1       6.174  25.839   4.450  1.00  0.00    +0.000 H 
ATOM    114  H11 UNL A   1       4.956  24.837   3.600  1.00  0.00    +0.000 H 
ATOM      8  C6  UNL A   1       5.174  25.460   4.442  1.00  0.00    +0.000 C 
BRANCH    8    7
ATOM    111  H8  UNL A   1       3.599  26.659   5.217  1.00  0.00    +0.000 H 
ATOM      7  C5  UNL A   1       4.217  26.655   4.343  1.00  0.00    +0.000 C 
ATOM    112  H9  UNL A   1       4.832  27.526   4.255  1.00  0.00    +0.000 H 
BRANCH    7    6
ATOM    110  H7  UNL A   1       3.864  27.006   2.273  1.00  0.00    +0.000 H 
ATOM    109  H6  UNL A   1       2.462  27.288   3.300  1.00  0.00    +0.000 H 
ATOM      6  C4  UNL A   1       3.301  26.653   3.113  1.00  0.00    +0.000 C 
BRANCH    6    5
ATOM    108  H5  UNL A   1       2.490  24.779   3.565  1.00  0.00    +0.000 H 
ATOM      5  N1  UNL A   1       2.825  25.317   2.812  1.00  0.00    +0.000 N 
BRANCH    5    3
ATOM      3  C3  UNL A   1       2.799  24.742   1.569  1.00  0.00    +0.000 C 
ATOM      4  O1  UNL A   1       2.252  25.393   0.679  1.00  0.00    +0.000 O 
BRANCH    3    2
ATOM      2  C2  UNL A   1       3.455  23.365   1.371  1.00  0.00    +0.000 C 
ATOM    107  H4  UNL A   1       2.821  22.860   0.672  1.00  0.00    +0.000 H 
BRANCH    2    1
ATOM      1  C1  UNL A   1       3.533  22.652   2.727  1.00  0.00    +0.000 C 
ATOM    106  H3  UNL A   1       3.342  23.354   3.511  1.00  0.00    +0.000 H 
ATOM    105  H2  UNL A   1       2.802  21.870   2.762  1.00  0.00    +0.000 H 
ATOM    104  H1  UNL A   1       4.510  22.232   2.854  1.00  0.00    +0.000 H 
ENDBRANCH    2    1
BRANCH    2   78
ATOM    101  C75 UNL A   1       6.330  23.682  -1.175  1.00  0.00    +0.000 C 
ATOM    102  F16 UNL A   1       6.456  23.902  -2.494  1.00  0.00    +0.000 F 
ATOM    103  C76 UNL A   1       5.043  23.528  -0.664  1.00  0.00    +0.000 C 
ATOM    136  H33 UNL A   1       5.859  23.001   2.525  1.00  0.00    +0.000 H 
ATOM    137  H34 UNL A   1       8.085  23.293   1.629  1.00  0.00    +0.000 H 
ATOM     78  C55 UNL A   1       4.834  23.348   0.707  1.00  0.00    +0.000 C 
ATOM     79  C56 UNL A   1       5.977  23.220   1.523  1.00  0.00    +0.000 C 
ATOM     80  C57 UNL A   1       7.268  23.383   1.003  1.00  0.00    +0.000 C 
ATOM     81  C58 UNL A   1       7.463  23.666  -0.354  1.00  0.00    +0.000 C 
ATOM    154  H51 UNL A   1       4.234  23.548  -1.304  1.00  0.00    +0.000 H 
BRANCH   81   82
ATOM    100  C74 UNL A   1       9.212  25.384  -0.723  1.00  0.00    +0.000 C 
ATOM    138  H35 UNL A   1       9.349  22.159  -1.620  1.00  0.00    +0.000 H 
ATOM    139  H36 UNL A   1      11.518  22.872  -2.436  1.00  0.00    +0.000 H 
ATOM    140  H37 UNL A   1      12.232  25.176  -2.149  1.00  0.00    +0.000 H 
ATOM     82  C59 UNL A   1       8.780  24.053  -0.877  1.00  0.00    +0.000 C 
ATOM     83  C60 UNL A   1       9.641  23.141  -1.502  1.00  0.00    +0.000 C 
ATOM     84  C61 UNL A   1      10.896  23.551  -1.969  1.00  0.00    +0.000 C 
ATOM     85  C62 UNL A   1      11.308  24.874  -1.804  1.00  0.00    +0.000 C 
ATOM     86  C63 UNL A   1      10.465  25.785  -1.172  1.00  0.00    +0.000 C 
ATOM    153  H50 UNL A   1       8.589  26.072  -0.272  1.00  0.00    +0.000 H 
BRANCH   86   87
ATOM     87  O3  UNL A   1      10.941  27.115  -1.087  1.00  0.00    +0.000 O 
BRANCH   87   88
ATOM     89  O4  UNL A   1      13.027  27.462  -0.084  1.00  0.00    +0.000 O 
ATOM     88  C64 UNL A   1      12.288  27.477  -1.056  1.00  0.00    +0.000 C 
BRANCH   88   90
ATOM     90  N7  UNL A   1      12.767  27.866  -2.281  1.00  0.00    +0.000 N 
ATOM    141  H38 UNL A   1      13.236  27.194  -2.828  1.00  0.00    +0.000 H 
BRANCH   90   91
ATOM     91  C65 UNL A   1      12.626  29.198  -2.821  1.00  0.00    +0.000 C 
ATOM    142  H39 UNL A   1      13.604  29.589  -3.004  1.00  0.00    +0.000 H 
ATOM    143  H40 UNL A   1      12.078  29.764  -2.096  1.00  0.00    +0.000 H 
BRANCH   91   92
ATOM    145  H42 UNL A   1      11.812  30.314  -4.364  1.00  0.00    +0.000 H 
ATOM     92  C66 UNL A   1      11.829  29.270  -4.124  1.00  0.00    +0.000 C 
ATOM    144  H41 UNL A   1      12.321  28.634  -4.831  1.00  0.00    +0.000 H 
BRANCH   92   93
ATOM    146  H43 UNL A   1       9.843  29.508  -4.784  1.00  0.00    +0.000 H 
ATOM    147  H44 UNL A   1      10.098  28.943  -3.061  1.00  0.00    +0.000 H 
ATOM     93  C67 UNL A   1      10.350  28.863  -4.098  1.00  0.00    +0.000 C 
BRANCH   93   94
ATOM     97  C71 UNL A   1       9.374  24.761  -5.077  1.00  0.00    +0.000 C 
ATOM     98  C72 UNL A   1      10.608  25.308  -5.408  1.00  0.00    +0.000 C 
ATOM     99  C73 UNL A   1      10.888  26.638  -5.087  1.00  0.00    +0.000 C 
ATOM    148  H45 UNL A   1       7.983  27.457  -3.655  1.00  0.00    +0.000 H 
ATOM    149  H46 UNL A   1       7.506  25.143  -4.186  1.00  0.00    +0.000 H 
ATOM    150  H47 UNL A   1       9.165  23.777  -5.307  1.00  0.00    +0.000 H 
ATOM    151  H48 UNL A   1      11.316  24.733  -5.890  1.00  0.00    +0.000 H 
ATOM    152  H49 UNL A   1      11.811  27.032  -5.327  1.00  0.00    +0.000 H 
ATOM     94  C68 UNL A   1       9.938  27.451  -4.442  1.00  0.00    +0.000 C 
ATOM     95  C69 UNL A   1       8.701  26.883  -4.125  1.00  0.00    +0.000 C 
ATOM     96  C70 UNL A   1       8.423  25.547  -4.435  1.00  0.00    +0.000 C 
ENDBRANCH   93   94
ENDBRANCH   92   93
ENDBRANCH   91   92
ENDBRANCH   90   91
ENDBRANCH   88   90
ENDBRANCH   87   88
ENDBRANCH   86   87
ENDBRANCH   81   82
ENDBRANCH    2   78
ENDBRANCH    3    2
ENDBRANCH    5    3
ENDBRANCH    6    5
ENDBRANCH    7    6
ENDBRANCH    8    7
ENDBRANCH    9    8
ENDBRANCH   10    9
ENDBRANCH   11   10
ENDBRANCH   12   11
ENDBRANCH   13   12
ENDBRANCH   15   13
ENDBRANCH   19   18
BRANCH   23   24
ATOM     33  C24 UNL A   1       4.423  26.787  -3.003  1.00  0.00    +0.000 C 
ATOM     34  F5  UNL A   1       5.584  26.330  -3.496  1.00  0.00    +0.000 F 
ATOM     24  C19 UNL A   1       4.409  27.871  -2.112  1.00  0.00    +0.000 C 
ATOM     25  C20 UNL A   1       3.166  28.309  -1.632  1.00  0.00    +0.000 C 
ATOM     26  F1  UNL A   1       3.100  29.333  -0.769  1.00  0.00    +0.000 F 
ATOM     27  C21 UNL A   1       1.987  27.671  -2.006  1.00  0.00    +0.000 C 
ATOM     28  F2  UNL A   1       0.815  28.078  -1.498  1.00  0.00    +0.000 F 
ATOM     29  C22 UNL A   1       2.024  26.606  -2.894  1.00  0.00    +0.000 C 
ATOM     30  F3  UNL A   1       0.887  25.994  -3.257  1.00  0.00    +0.000 F 
ATOM     31  C23 UNL A   1       3.239  26.168  -3.398  1.00  0.00    +0.000 C 
ATOM     32  F4  UNL A   1       3.276  25.145  -4.263  1.00  0.00    +0.000 F 
ENDBRANCH   23   24
BRANCH   40   41
ATOM     41  C30 UNL A   1       8.709  33.110  -4.568  1.00  0.00    +0.000 C 
ATOM     42  C31 UNL A   1       8.155  34.392  -4.446  1.00  0.00    +0.000 C 
ATOM     43  F6  UNL A   1       7.534  34.753  -3.313  1.00  0.00    +0.000 F 
ATOM     44  C32 UNL A   1       8.206  35.295  -5.503  1.00  0.00    +0.000 C 
ATOM     45  F7  UNL A   1       7.633  36.501  -5.380  1.00  0.00    +0.000 F 
ATOM     46  C33 UNL A   1       8.835  34.947  -6.689  1.00  0.00    +0.000 C 
ATOM     47  F8  UNL A   1       8.888  35.820  -7.703  1.00  0.00    +0.000 F 
ATOM     48  C34 UNL A   1       9.405  33.689  -6.825  1.00  0.00    +0.000 C 
ATOM     49  F9  UNL A   1      10.023  33.354  -7.967  1.00  0.00    +0.000 F 
ATOM     50  C35 UNL A   1       9.333  32.774  -5.779  1.00  0.00    +0.000 C 
ATOM     51  F10 UNL A   1       9.883  31.561  -5.943  1.00  0.00    +0.000 F 
ENDBRANCH   40   41
BRANCH   55   56
ATOM     65  C44 UNL A   1      13.168  33.046   1.501  1.00  0.00    +0.000 C 
ATOM     66  F15 UNL A   1      12.044  33.644   1.926  1.00  0.00    +0.000 F 
ATOM     56  C39 UNL A   1      13.094  31.897   0.704  1.00  0.00    +0.000 C 
ATOM     57  C40 UNL A   1      14.297  31.314   0.282  1.00  0.00    +0.000 C 
ATOM     58  F11 UNL A   1      14.275  30.201  -0.465  1.00  0.00    +0.000 F 
ATOM     59  C41 UNL A   1      15.526  31.851   0.658  1.00  0.00    +0.000 C 
ATOM     60  F12 UNL A   1      16.662  31.251   0.274  1.00  0.00    +0.000 F 
ATOM     61  C42 UNL A   1      15.576  32.994   1.440  1.00  0.00    +0.000 C 
ATOM     62  F13 UNL A   1      16.758  33.512   1.798  1.00  0.00    +0.000 F 
ATOM     63  C43 UNL A   1      14.398  33.597   1.857  1.00  0.00    +0.000 C 
ATOM     64  F14 UNL A   1      14.441  34.709   2.602  1.00  0.00    +0.000 F 
ENDBRANCH   55   56
TORSDOF 25
ENDMDL
MODEL 5
REMARK VINA RESULT:      -8.5      5.300     12.872
ROOT
ATOM    129  H26 UNL A   1       9.704  52.509  13.490  1.00  0.00    +0.000 H 
ATOM    130  H27 UNL A   1       8.125  53.378  18.185  1.00  0.00    +0.000 H 
ATOM    131  H28 UNL A   1       6.716  51.251  17.968  1.00  0.00    +0.000 H 
ATOM    132  H29 UNL A   1       9.692  50.147   8.436  1.00  0.00    +0.000 H 
ATOM    133  H30 UNL A   1      11.442  51.985   8.773  1.00  0.00    +0.000 H 
ATOM     19  C15 UNL A   1      11.276  53.273  11.307  1.00  0.00    +0.000 C 
ATOM     20  C16 UNL A   1      10.494  52.082  10.831  1.00  0.00    +0.000 C 
ATOM     21  N3  UNL A   1       9.583  51.383  11.460  1.00  0.00    +0.000 N 
ATOM     22  C17 UNL A   1       9.147  50.427  10.551  1.00  0.00    +0.000 C 
ATOM     23  C18 UNL A   1       8.252  49.430  10.740  1.00  0.00    +0.000 C 
ATOM     35  C25 UNL A   1       7.569  49.175  11.982  1.00  0.00    +0.000 C 
ATOM     36  C26 UNL A   1       6.695  48.149  12.292  1.00  0.00    +0.000 C 
ATOM     37  C27 UNL A   1       6.256  48.330  13.608  1.00  0.00    +0.000 C 
ATOM     38  C28 UNL A   1       6.889  49.447  14.131  1.00  0.00    +0.000 C 
ATOM     39  N4  UNL A   1       7.689  49.957  13.122  1.00  0.00    +0.000 N 
ATOM     40  C29 UNL A   1       6.772  50.010  15.451  1.00  0.00    +0.000 C 
ATOM     52  C36 UNL A   1       7.440  51.102  15.893  1.00  0.00    +0.000 C 
ATOM     53  N5  UNL A   1       8.353  51.899  15.217  1.00  0.00    +0.000 N 
ATOM     54  C37 UNL A   1       8.710  52.834  16.062  1.00  0.00    +0.000 C 
ATOM     55  C38 UNL A   1       9.695  53.957  15.876  1.00  0.00    +0.000 C 
ATOM     67  C45 UNL A   1      10.354  54.069  14.707  1.00  0.00    +0.000 C 
ATOM     68  C46 UNL A   1      11.339  55.096  14.384  1.00  0.00    +0.000 C 
ATOM     69  C47 UNL A   1      11.758  54.920  13.121  1.00  0.00    +0.000 C 
ATOM     70  C48 UNL A   1      11.093  53.746  12.555  1.00  0.00    +0.000 C 
ATOM     71  N6  UNL A   1      10.281  53.302  13.570  1.00  0.00    +0.000 N 
ATOM     72  C49 UNL A   1       8.043  52.751  17.369  1.00  0.00    +0.000 C 
ATOM     73  C50 UNL A   1       7.307  51.657  17.225  1.00  0.00    +0.000 C 
ATOM     74  C51 UNL A   1       9.858  50.666   9.313  1.00  0.00    +0.000 C 
ATOM     75  C52 UNL A   1      10.750  51.635   9.452  1.00  0.00    +0.000 C 
ATOM    124  H21 UNL A   1       6.415  47.381  11.662  1.00  0.00    +0.000 H 
ATOM    125  H22 UNL A   1       5.576  47.734  14.106  1.00  0.00    +0.000 H 
ATOM    126  H23 UNL A   1       8.259  50.756  13.200  1.00  0.00    +0.000 H 
ATOM    127  H24 UNL A   1      11.661  55.839  15.025  1.00  0.00    +0.000 H 
ATOM    128  H25 UNL A   1      12.439  55.518  12.628  1.00  0.00    +0.000 H 
ENDROOT
BRANCH   19   18
ATOM    134  H31 UNL A   1      13.864  52.754  10.854  1.00  0.00    +0.000 H 
ATOM    135  H32 UNL A   1      15.418  53.939   9.420  1.00  0.00    +0.000 H 
ATOM     76  C53 UNL A   1      13.536  53.554  10.289  1.00  0.00    +0.000 C 
ATOM     77  C54 UNL A   1      14.421  54.207   9.435  1.00  0.00    +0.000 C 
ATOM     15  C11 UNL A   1      13.957  55.227   8.599  1.00  0.00    +0.000 C 
ATOM     16  C12 UNL A   1      12.638  55.675   8.705  1.00  0.00    +0.000 C 
ATOM     17  C13 UNL A   1      11.768  55.062   9.609  1.00  0.00    +0.000 C 
ATOM     18  C14 UNL A   1      12.201  53.976  10.385  1.00  0.00    +0.000 C 
ATOM    122  H19 UNL A   1      12.309  56.458   8.118  1.00  0.00    +0.000 H 
ATOM    123  H20 UNL A   1      10.800  55.408   9.705  1.00  0.00    +0.000 H 
BRANCH   15   13
ATOM     13  C10 UNL A   1      14.846  55.856   7.598  1.00  0.00    +0.000 C 
ATOM     14  O2  UNL A   1      15.888  56.392   7.961  1.00  0.00    +0.000 O 
BRANCH   13   12
ATOM    121  H18 UNL A   1      13.611  56.243   6.068  1.00  0.00    +0.000 H 
ATOM     12  N2  UNL A   1      14.492  55.855   6.272  1.00  0.00    +0.000 N 
BRANCH   12   11
ATOM     11  C9  UNL A   1      15.237  55.360   5.126  1.00  0.00    +0.000 C 
ATOM    119  H16 UNL A   1      15.201  56.094   4.349  1.00  0.00    +0.000 H 
ATOM    120  H17 UNL A   1      16.243  55.177   5.446  1.00  0.00    +0.000 H 
BRANCH   11   10
ATOM     10  C8  UNL A   1      14.674  54.048   4.590  1.00  0.00    +0.000 C 
ATOM    117  H14 UNL A   1      13.667  53.952   4.937  1.00  0.00    +0.000 H 
ATOM    118  H15 UNL A   1      14.752  54.100   3.525  1.00  0.00    +0.000 H 
BRANCH   10    9
ATOM      9  C7  UNL A   1      15.446  52.797   5.016  1.00  0.00    +0.000 C 
ATOM    115  H12 UNL A   1      16.237  53.103   5.669  1.00  0.00    +0.000 H 
ATOM    116  H13 UNL A   1      14.732  52.153   5.484  1.00  0.00    +0.000 H 
BRANCH    9    8
ATOM    113  H10 UNL A   1      15.295  51.374   3.453  1.00  0.00    +0.000 H 
ATOM    114  H11 UNL A   1      16.455  52.712   3.184  1.00  0.00    +0.000 H 
ATOM      8  C6  UNL A   1      16.061  51.991   3.870  1.00  0.00    +0.000 C 
BRANCH    8    7
ATOM    111  H8  UNL A   1      18.119  51.695   4.316  1.00  0.00    +0.000 H 
ATOM      7  C5  UNL A   1      17.240  51.088   4.257  1.00  0.00    +0.000 C 
ATOM    112  H9  UNL A   1      16.975  50.632   5.188  1.00  0.00    +0.000 H 
BRANCH    7    6
ATOM    110  H7  UNL A   1      18.582  49.802   3.217  1.00  0.00    +0.000 H 
ATOM    109  H6  UNL A   1      17.110  50.181   2.326  1.00  0.00    +0.000 H 
ATOM      6  C4  UNL A   1      17.521  49.937   3.283  1.00  0.00    +0.000 C 
BRANCH    6    5
ATOM    108  H5  UNL A   1      17.450  48.168   4.397  1.00  0.00    +0.000 H 
ATOM      5  N1  UNL A   1      16.933  48.696   3.747  1.00  0.00    +0.000 N 
BRANCH    5    3
ATOM      3  C3  UNL A   1      15.718  48.197   3.359  1.00  0.00    +0.000 C 
ATOM      4  O1  UNL A   1      15.451  48.283   2.161  1.00  0.00    +0.000 O 
BRANCH    3    2
ATOM      2  C2  UNL A   1      14.799  47.563   4.418  1.00  0.00    +0.000 C 
ATOM    107  H4  UNL A   1      15.104  46.538   4.464  1.00  0.00    +0.000 H 
BRANCH    2    1
ATOM      1  C1  UNL A   1      13.340  47.731   3.973  1.00  0.00    +0.000 C 
ATOM    106  H3  UNL A   1      12.727  47.020   4.486  1.00  0.00    +0.000 H 
ATOM    105  H2  UNL A   1      13.008  48.721   4.205  1.00  0.00    +0.000 H 
ATOM    104  H1  UNL A   1      13.268  47.568   2.918  1.00  0.00    +0.000 H 
ENDBRANCH    2    1
BRANCH    2   78
ATOM    101  C75 UNL A   1      15.721  47.851   8.148  1.00  0.00    +0.000 C 
ATOM    102  F16 UNL A   1      16.226  47.052   9.102  1.00  0.00    +0.000 F 
ATOM    103  C76 UNL A   1      15.434  47.283   6.909  1.00  0.00    +0.000 C 
ATOM    136  H33 UNL A   1      14.238  50.004   5.402  1.00  0.00    +0.000 H 
ATOM    137  H34 UNL A   1      14.761  50.984   7.548  1.00  0.00    +0.000 H 
ATOM     78  C55 UNL A   1      14.955  48.067   5.855  1.00  0.00    +0.000 C 
ATOM     79  C56 UNL A   1      14.672  49.419   6.133  1.00  0.00    +0.000 C 
ATOM     80  C57 UNL A   1      14.970  49.987   7.379  1.00  0.00    +0.000 C 
ATOM     81  C58 UNL A   1      15.547  49.218   8.396  1.00  0.00    +0.000 C 
ATOM    154  H51 UNL A   1      15.578  46.271   6.767  1.00  0.00    +0.000 H 
BRANCH   81   82
ATOM    100  C74 UNL A   1      15.154  50.382  10.550  1.00  0.00    +0.000 C 
ATOM    138  H35 UNL A   1      18.116  49.472   9.274  1.00  0.00    +0.000 H 
ATOM    139  H36 UNL A   1      18.887  50.487  11.336  1.00  0.00    +0.000 H 
ATOM    140  H37 UNL A   1      17.289  51.420  12.909  1.00  0.00    +0.000 H 
ATOM     82  C59 UNL A   1      16.064  49.834   9.627  1.00  0.00    +0.000 C 
ATOM     83  C60 UNL A   1      17.431  49.874   9.932  1.00  0.00    +0.000 C 
ATOM     84  C61 UNL A   1      17.877  50.455  11.125  1.00  0.00    +0.000 C 
ATOM     85  C62 UNL A   1      16.960  50.991  12.031  1.00  0.00    +0.000 C 
ATOM     86  C63 UNL A   1      15.598  50.943  11.742  1.00  0.00    +0.000 C 
ATOM    153  H50 UNL A   1      14.144  50.369  10.339  1.00  0.00    +0.000 H 
BRANCH   86   87
ATOM     87  O3  UNL A   1      14.742  51.549  12.692  1.00  0.00    +0.000 O 
BRANCH   87   88
ATOM     89  O4  UNL A   1      14.260  50.669  14.805  1.00  0.00    +0.000 O 
ATOM     88  C64 UNL A   1      13.980  50.856  13.633  1.00  0.00    +0.000 C 
BRANCH   88   90
ATOM     90  N7  UNL A   1      12.801  50.376  13.120  1.00  0.00    +0.000 N 
ATOM    141  H38 UNL A   1      12.202  51.013  12.667  1.00  0.00    +0.000 H 
BRANCH   90   91
ATOM     91  C65 UNL A   1      12.384  48.996  13.202  1.00  0.00    +0.000 C 
ATOM    142  H39 UNL A   1      11.604  48.926  13.930  1.00  0.00    +0.000 H 
ATOM    143  H40 UNL A   1      13.254  48.430  13.465  1.00  0.00    +0.000 H 
BRANCH   91   92
ATOM    145  H42 UNL A   1      11.252  47.590  12.187  1.00  0.00    +0.000 H 
ATOM     92  C66 UNL A   1      11.866  48.414  11.887  1.00  0.00    +0.000 C 
ATOM    144  H41 UNL A   1      11.367  49.204  11.365  1.00  0.00    +0.000 H 
BRANCH   92   93
ATOM    146  H43 UNL A   1      13.312  46.955  11.415  1.00  0.00    +0.000 H 
ATOM    147  H44 UNL A   1      13.520  48.619  10.679  1.00  0.00    +0.000 H 
ATOM     93  C67 UNL A   1      12.879  47.795  10.914  1.00  0.00    +0.000 C 
BRANCH   93   94
ATOM     97  C71 UNL A   1      11.660  46.591   6.939  1.00  0.00    +0.000 C 
ATOM     98  C72 UNL A   1      11.598  47.920   7.341  1.00  0.00    +0.000 C 
ATOM     99  C73 UNL A   1      11.989  48.274   8.634  1.00  0.00    +0.000 C 
ATOM    148  H45 UNL A   1      12.805  45.245   9.785  1.00  0.00    +0.000 H 
ATOM    149  H46 UNL A   1      12.153  44.634   7.535  1.00  0.00    +0.000 H 
ATOM    150  H47 UNL A   1      11.377  46.325   5.982  1.00  0.00    +0.000 H 
ATOM    151  H48 UNL A   1      11.263  48.643   6.686  1.00  0.00    +0.000 H 
ATOM    152  H49 UNL A   1      11.949  49.264   8.920  1.00  0.00    +0.000 H 
ATOM     94  C68 UNL A   1      12.436  47.308   9.554  1.00  0.00    +0.000 C 
ATOM     95  C69 UNL A   1      12.484  45.977   9.131  1.00  0.00    +0.000 C 
ATOM     96  C70 UNL A   1      12.104  45.621   7.832  1.00  0.00    +0.000 C 
ENDBRANCH   93   94
ENDBRANCH   92   93
ENDBRANCH   91   92
ENDBRANCH   90   91
ENDBRANCH   88   90
ENDBRANCH   87   88
ENDBRANCH   86   87
ENDBRANCH   81   82
ENDBRANCH    2   78
ENDBRANCH    3    2
ENDBRANCH    5    3
ENDBRANCH    6    5
ENDBRANCH    7    6
ENDBRANCH    8    7
ENDBRANCH    9    8
ENDBRANCH   10    9
ENDBRANCH   11   10
ENDBRANCH   12   11
ENDBRANCH   13   12
ENDBRANCH   15   13
ENDBRANCH   19   18
BRANCH   23   24
ATOM     33  C24 UNL A   1       7.051  48.929   8.580  1.00  0.00    +0.000 C 
ATOM     34  F5  UNL A   1       6.450  50.127   8.651  1.00  0.00    +0.000 F 
ATOM     24  C19 UNL A   1       7.960  48.533   9.573  1.00  0.00    +0.000 C 
ATOM     25  C20 UNL A   1       8.555  47.269   9.451  1.00  0.00    +0.000 C 
ATOM     26  F1  UNL A   1       9.440  46.849  10.368  1.00  0.00    +0.000 F 
ATOM     27  C21 UNL A   1       8.275  46.446   8.364  1.00  0.00    +0.000 C 
ATOM     28  F2  UNL A   1       8.892  45.262   8.244  1.00  0.00    +0.000 F 
ATOM     29  C22 UNL A   1       7.368  46.855   7.397  1.00  0.00    +0.000 C 
ATOM     30  F3  UNL A   1       7.096  46.060   6.353  1.00  0.00    +0.000 F 
ATOM     31  C23 UNL A   1       6.751  48.092   7.508  1.00  0.00    +0.000 C 
ATOM     32  F4  UNL A   1       5.868  48.485   6.580  1.00  0.00    +0.000 F 
ENDBRANCH   23   24
BRANCH   40   41
ATOM     41  C30 UNL A   1       5.857  49.326  16.424  1.00  0.00    +0.000 C 
ATOM     42  C31 UNL A   1       4.499  49.660  16.511  1.00  0.00    +0.000 C 
ATOM     43  F6  UNL A   1       3.997  50.648  15.755  1.00  0.00    +0.000 F 
ATOM     44  C32 UNL A   1       3.658  49.004  17.406  1.00  0.00    +0.000 C 
ATOM     45  F7  UNL A   1       2.372  49.368  17.503  1.00  0.00    +0.000 F 
ATOM     46  C33 UNL A   1       4.151  47.984  18.205  1.00  0.00    +0.000 C 
ATOM     47  F8  UNL A   1       3.339  47.349  19.061  1.00  0.00    +0.000 F 
ATOM     48  C34 UNL A   1       5.489  47.626  18.122  1.00  0.00    +0.000 C 
ATOM     49  F9  UNL A   1       5.964  46.632  18.887  1.00  0.00    +0.000 F 
ATOM     50  C35 UNL A   1       6.338  48.297  17.248  1.00  0.00    +0.000 C 
ATOM     51  F10 UNL A   1       7.629  47.937  17.197  1.00  0.00    +0.000 F 
ENDBRANCH   40   41
BRANCH   55   56
ATOM     65  C44 UNL A   1       9.459  56.226  16.941  1.00  0.00    +0.000 C 
ATOM     66  F15 UNL A   1       8.709  56.631  15.906  1.00  0.00    +0.000 F 
ATOM     56  C39 UNL A   1       9.967  54.920  16.973  1.00  0.00    +0.000 C 
ATOM     57  C40 UNL A   1      10.750  54.548  18.075  1.00  0.00    +0.000 C 
ATOM     58  F11 UNL A   1      11.239  53.302  18.157  1.00  0.00    +0.000 F 
ATOM     59  C41 UNL A   1      11.001  55.443  19.111  1.00  0.00    +0.000 C 
ATOM     60  F12 UNL A   1      11.721  55.050  20.172  1.00  0.00    +0.000 F 
ATOM     61  C42 UNL A   1      10.498  56.733  19.056  1.00  0.00    +0.000 C 
ATOM     62  F13 UNL A   1      10.744  57.594  20.051  1.00  0.00    +0.000 F 
ATOM     63  C43 UNL A   1       9.733  57.128  17.968  1.00  0.00    +0.000 C 
ATOM     64  F14 UNL A   1       9.254  58.378  17.904  1.00  0.00    +0.000 F 
ENDBRANCH   55   56
TORSDOF 25
ENDMDL
MODEL 6
REMARK VINA RESULT:      -8.4     38.427     44.071
ROOT
ATOM    129  H26 UNL A   1      40.897  29.342  31.825  1.00  0.00    +0.000 H 
ATOM    130  H27 UNL A   1      39.151  28.825  27.138  1.00  0.00    +0.000 H 
ATOM    131  H28 UNL A   1      37.382  30.575  27.740  1.00  0.00    +0.000 H 
ATOM    132  H29 UNL A   1      40.829  30.939  37.170  1.00  0.00    +0.000 H 
ATOM    133  H30 UNL A   1      42.866  29.554  36.476  1.00  0.00    +0.000 H 
ATOM     19  C15 UNL A   1      42.752  28.618  33.788  1.00  0.00    +0.000 C 
ATOM     20  C16 UNL A   1      41.796  29.551  34.476  1.00  0.00    +0.000 C 
ATOM     21  N3  UNL A   1      40.722  30.132  34.005  1.00  0.00    +0.000 N 
ATOM     22  C17 UNL A   1      40.184  30.847  35.066  1.00  0.00    +0.000 C 
ATOM     23  C18 UNL A   1      39.102  31.661  35.074  1.00  0.00    +0.000 C 
ATOM     35  C25 UNL A   1      38.288  31.942  33.920  1.00  0.00    +0.000 C 
ATOM     36  C26 UNL A   1      37.212  32.804  33.810  1.00  0.00    +0.000 C 
ATOM     37  C27 UNL A   1      36.715  32.720  32.505  1.00  0.00    +0.000 C 
ATOM     38  C28 UNL A   1      37.506  31.835  31.791  1.00  0.00    +0.000 C 
ATOM     39  N4  UNL A   1      38.466  31.363  32.671  1.00  0.00    +0.000 N 
ATOM     40  C29 UNL A   1      37.397  31.446  30.409  1.00  0.00    +0.000 C 
ATOM     52  C36 UNL A   1      38.225  30.581  29.775  1.00  0.00    +0.000 C 
ATOM     53  N5  UNL A   1      39.323  29.899  30.278  1.00  0.00    +0.000 N 
ATOM     54  C37 UNL A   1      39.786  29.179  29.286  1.00  0.00    +0.000 C 
ATOM     55  C38 UNL A   1      40.978  28.262  29.253  1.00  0.00    +0.000 C 
ATOM     67  C45 UNL A   1      41.736  28.126  30.358  1.00  0.00    +0.000 C 
ATOM     68  C46 UNL A   1      42.921  27.283  30.474  1.00  0.00    +0.000 C 
ATOM     69  C47 UNL A   1      43.397  27.365  31.727  1.00  0.00    +0.000 C 
ATOM     70  C48 UNL A   1      42.565  28.293  32.494  1.00  0.00    +0.000 C 
ATOM     71  N6  UNL A   1      41.607  28.700  31.599  1.00  0.00    +0.000 N 
ATOM     72  C49 UNL A   1      39.014  29.305  28.041  1.00  0.00    +0.000 C 
ATOM     73  C50 UNL A   1      38.097  30.199  28.384  1.00  0.00    +0.000 C 
ATOM     74  C51 UNL A   1      41.022  30.590  36.218  1.00  0.00    +0.000 C 
ATOM     75  C52 UNL A   1      42.069  29.847  35.891  1.00  0.00    +0.000 C 
ATOM    124  H21 UNL A   1      36.841  33.406  34.561  1.00  0.00    +0.000 H 
ATOM    125  H22 UNL A   1      35.896  33.230  32.137  1.00  0.00    +0.000 H 
ATOM    126  H23 UNL A   1      39.170  30.713  32.446  1.00  0.00    +0.000 H 
ATOM    127  H24 UNL A   1      43.329  26.715  29.714  1.00  0.00    +0.000 H 
ATOM    128  H25 UNL A   1      44.216  26.855  32.091  1.00  0.00    +0.000 H 
ENDROOT
BRANCH   19   18
ATOM    134  H31 UNL A   1      42.678  26.423  35.321  1.00  0.00    +0.000 H 
ATOM    135  H32 UNL A   1      44.456  25.435  36.639  1.00  0.00    +0.000 H 
ATOM     76  C53 UNL A   1      43.623  26.837  35.303  1.00  0.00    +0.000 C 
ATOM     77  C54 UNL A   1      44.653  26.244  36.029  1.00  0.00    +0.000 C 
ATOM     15  C11 UNL A   1      45.954  26.746  35.930  1.00  0.00    +0.000 C 
ATOM     16  C12 UNL A   1      46.202  27.914  35.203  1.00  0.00    +0.000 C 
ATOM     17  C13 UNL A   1      45.155  28.546  34.528  1.00  0.00    +0.000 C 
ATOM     18  C14 UNL A   1      43.864  27.995  34.547  1.00  0.00    +0.000 C 
ATOM    122  H19 UNL A   1      47.155  28.308  35.167  1.00  0.00    +0.000 H 
ATOM    123  H20 UNL A   1      45.332  29.421  34.011  1.00  0.00    +0.000 H 
BRANCH   15   13
ATOM     13  C10 UNL A   1      47.087  26.065  36.593  1.00  0.00    +0.000 C 
ATOM     14  O2  UNL A   1      47.566  25.053  36.092  1.00  0.00    +0.000 O 
BRANCH   13   12
ATOM    121  H18 UNL A   1      48.440  27.033  37.711  1.00  0.00    +0.000 H 
ATOM     12  N2  UNL A   1      47.582  26.555  37.776  1.00  0.00    +0.000 N 
BRANCH   12   11
ATOM     11  C9  UNL A   1      47.016  26.465  39.112  1.00  0.00    +0.000 C 
ATOM    119  H16 UNL A   1      46.547  25.510  39.223  1.00  0.00    +0.000 H 
ATOM    120  H17 UNL A   1      47.815  26.593  39.814  1.00  0.00    +0.000 H 
BRANCH   11   10
ATOM     10  C8  UNL A   1      45.983  27.554  39.380  1.00  0.00    +0.000 C 
ATOM    117  H14 UNL A   1      45.077  27.282  38.881  1.00  0.00    +0.000 H 
ATOM    118  H15 UNL A   1      45.880  27.615  40.442  1.00  0.00    +0.000 H 
BRANCH   10    9
ATOM      9  C7  UNL A   1      46.387  28.951  38.906  1.00  0.00    +0.000 C 
ATOM    115  H12 UNL A   1      46.785  29.483  39.745  1.00  0.00    +0.000 H 
ATOM    116  H13 UNL A   1      47.097  28.805  38.119  1.00  0.00    +0.000 H 
BRANCH    9    8
ATOM    113  H10 UNL A   1      45.614  30.233  37.406  1.00  0.00    +0.000 H 
ATOM    114  H11 UNL A   1      44.437  29.111  38.160  1.00  0.00    +0.000 H 
ATOM      8  C6  UNL A   1      45.254  29.788  38.308  1.00  0.00    +0.000 C 
BRANCH    8    7
ATOM    111  H8  UNL A   1      43.650  30.930  39.111  1.00  0.00    +0.000 H 
ATOM      7  C5  UNL A   1      44.715  30.909  39.208  1.00  0.00    +0.000 C 
ATOM    112  H9  UNL A   1      45.046  30.682  40.200  1.00  0.00    +0.000 H 
BRANCH    7    6
ATOM    110  H7  UNL A   1      46.223  32.208  38.450  1.00  0.00    +0.000 H 
ATOM    109  H6  UNL A   1      45.300  32.880  39.792  1.00  0.00    +0.000 H 
ATOM      6  C4  UNL A   1      45.250  32.310  38.888  1.00  0.00    +0.000 C 
BRANCH    6    5
ATOM    108  H5  UNL A   1      43.493  33.245  38.247  1.00  0.00    +0.000 H 
ATOM      5  N1  UNL A   1      44.395  32.999  37.942  1.00  0.00    +0.000 N 
BRANCH    5    3
ATOM      3  C3  UNL A   1      44.737  33.335  36.659  1.00  0.00    +0.000 C 
ATOM      4  O1  UNL A   1      45.098  34.498  36.478  1.00  0.00    +0.000 O 
BRANCH    3    2
ATOM      2  C2  UNL A   1      44.666  32.260  35.561  1.00  0.00    +0.000 C 
ATOM    107  H4  UNL A   1      44.140  31.445  36.012  1.00  0.00    +0.000 H 
BRANCH    2    1
ATOM      1  C1  UNL A   1      46.093  31.886  35.138  1.00  0.00    +0.000 C 
ATOM    106  H3  UNL A   1      46.460  32.610  34.442  1.00  0.00    +0.000 H 
ATOM    105  H2  UNL A   1      46.727  31.867  36.000  1.00  0.00    +0.000 H 
ATOM    104  H1  UNL A   1      46.087  30.919  34.679  1.00  0.00    +0.000 H 
ENDBRANCH    2    1
BRANCH    2   78
ATOM    101  C75 UNL A   1      42.068  33.788  33.160  1.00  0.00    +0.000 C 
ATOM    102  F16 UNL A   1      40.975  34.564  33.256  1.00  0.00    +0.000 F 
ATOM    103  C76 UNL A   1      42.670  33.366  34.343  1.00  0.00    +0.000 C 
ATOM    136  H33 UNL A   1      45.124  31.549  33.005  1.00  0.00    +0.000 H 
ATOM    137  H34 UNL A   1      44.084  32.308  30.960  1.00  0.00    +0.000 H 
ATOM     78  C55 UNL A   1      43.840  32.599  34.317  1.00  0.00    +0.000 C 
ATOM     79  C56 UNL A   1      44.313  32.186  33.056  1.00  0.00    +0.000 C 
ATOM     80  C57 UNL A   1      43.707  32.620  31.869  1.00  0.00    +0.000 C 
ATOM     81  C58 UNL A   1      42.597  33.472  31.903  1.00  0.00    +0.000 C 
ATOM    154  H51 UNL A   1      42.249  33.621  35.249  1.00  0.00    +0.000 H 
BRANCH   81   82
ATOM    100  C74 UNL A   1      42.984  34.463  29.663  1.00  0.00    +0.000 C 
ATOM    138  H35 UNL A   1      40.036  34.107  31.216  1.00  0.00    +0.000 H 
ATOM    139  H36 UNL A   1      39.262  35.145  29.166  1.00  0.00    +0.000 H 
ATOM    140  H37 UNL A   1      40.847  35.734  27.423  1.00  0.00    +0.000 H 
ATOM     82  C59 UNL A   1      42.081  34.111  30.685  1.00  0.00    +0.000 C 
ATOM     83  C60 UNL A   1      40.717  34.363  30.484  1.00  0.00    +0.000 C 
ATOM     84  C61 UNL A   1      40.268  34.957  29.299  1.00  0.00    +0.000 C 
ATOM     85  C62 UNL A   1      41.177  35.296  28.296  1.00  0.00    +0.000 C 
ATOM     86  C63 UNL A   1      42.534  35.038  28.480  1.00  0.00    +0.000 C 
ATOM    153  H50 UNL A   1      43.993  34.293  29.796  1.00  0.00    +0.000 H 
BRANCH   86   87
ATOM     87  O3  UNL A   1      43.392  35.453  27.434  1.00  0.00    +0.000 O 
BRANCH   87   88
ATOM     89  O4  UNL A   1      43.061  34.771  25.220  1.00  0.00    +0.000 O 
ATOM     88  C64 UNL A   1      43.659  34.713  26.282  1.00  0.00    +0.000 C 
BRANCH   88   90
ATOM     90  N7  UNL A   1      44.727  33.863  26.427  1.00  0.00    +0.000 N 
ATOM    141  H38 UNL A   1      44.681  32.984  25.985  1.00  0.00    +0.000 H 
BRANCH   90   91
ATOM     91  C65 UNL A   1      45.914  34.177  27.186  1.00  0.00    +0.000 C 
ATOM    142  H39 UNL A   1      45.739  35.088  27.718  1.00  0.00    +0.000 H 
ATOM    143  H40 UNL A   1      46.716  34.252  26.481  1.00  0.00    +0.000 H 
BRANCH   91   92
ATOM    145  H42 UNL A   1      47.126  32.584  27.717  1.00  0.00    +0.000 H 
ATOM     92  C66 UNL A   1      46.321  33.103  28.195  1.00  0.00    +0.000 C 
ATOM    144  H41 UNL A   1      46.564  33.604  29.110  1.00  0.00    +0.000 H 
BRANCH   92   93
ATOM    146  H43 UNL A   1      44.366  32.320  28.144  1.00  0.00    +0.000 H 
ATOM    147  H44 UNL A   1      45.402  31.908  29.597  1.00  0.00    +0.000 H 
ATOM     93  C67 UNL A   1      45.309  32.001  28.535  1.00  0.00    +0.000 C 
BRANCH   93   94
ATOM     97  C71 UNL A   1      46.058  28.025  26.994  1.00  0.00    +0.000 C 
ATOM     98  C72 UNL A   1      46.156  29.146  26.178  1.00  0.00    +0.000 C 
ATOM     99  C73 UNL A   1      45.898  30.414  26.703  1.00  0.00    +0.000 C 
ATOM    148  H45 UNL A   1      45.149  29.541  29.841  1.00  0.00    +0.000 H 
ATOM    149  H46 UNL A   1      45.623  27.345  28.937  1.00  0.00    +0.000 H 
ATOM    150  H47 UNL A   1      46.253  27.086  26.612  1.00  0.00    +0.000 H 
ATOM    151  H48 UNL A   1      46.418  29.041  25.186  1.00  0.00    +0.000 H 
ATOM    152  H49 UNL A   1      45.984  31.241  26.093  1.00  0.00    +0.000 H 
ATOM     94  C68 UNL A   1      45.524  30.586  28.049  1.00  0.00    +0.000 C 
ATOM     95  C69 UNL A   1      45.424  29.446  28.850  1.00  0.00    +0.000 C 
ATOM     96  C70 UNL A   1      45.694  28.175  28.329  1.00  0.00    +0.000 C 
ENDBRANCH   93   94
ENDBRANCH   92   93
ENDBRANCH   91   92
ENDBRANCH   90   91
ENDBRANCH   88   90
ENDBRANCH   87   88
ENDBRANCH   86   87
ENDBRANCH   81   82
ENDBRANCH    2   78
ENDBRANCH    3    2
ENDBRANCH    5    3
ENDBRANCH    6    5
ENDBRANCH    7    6
ENDBRANCH    8    7
ENDBRANCH    9    8
ENDBRANCH   10    9
ENDBRANCH   11   10
ENDBRANCH   12   11
ENDBRANCH   13   12
ENDBRANCH   15   13
ENDBRANCH   19   18
BRANCH   23   24
ATOM     33  C24 UNL A   1      39.151  33.623  36.657  1.00  0.00    +0.000 C 
ATOM     34  F5  UNL A   1      39.862  34.317  35.755  1.00  0.00    +0.000 F 
ATOM     24  C19 UNL A   1      38.736  32.313  36.375  1.00  0.00    +0.000 C 
ATOM     25  C20 UNL A   1      38.000  31.632  37.356  1.00  0.00    +0.000 C 
ATOM     26  F1  UNL A   1      37.569  30.382  37.129  1.00  0.00    +0.000 F 
ATOM     27  C21 UNL A   1      37.667  32.248  38.559  1.00  0.00    +0.000 C 
ATOM     28  F2  UNL A   1      36.923  31.595  39.462  1.00  0.00    +0.000 F 
ATOM     29  C22 UNL A   1      38.094  33.542  38.820  1.00  0.00    +0.000 C 
ATOM     30  F3  UNL A   1      37.777  34.133  39.981  1.00  0.00    +0.000 F 
ATOM     31  C23 UNL A   1      38.841  34.226  37.873  1.00  0.00    +0.000 C 
ATOM     32  F4  UNL A   1      39.262  35.473  38.127  1.00  0.00    +0.000 F 
ENDBRANCH   23   24
BRANCH   40   41
ATOM     41  C30 UNL A   1      36.294  32.059  29.596  1.00  0.00    +0.000 C 
ATOM     42  C31 UNL A   1      36.293  33.423  29.273  1.00  0.00    +0.000 C 
ATOM     43  F6  UNL A   1      37.264  34.227  29.735  1.00  0.00    +0.000 F 
ATOM     44  C32 UNL A   1      35.273  33.974  28.503  1.00  0.00    +0.000 C 
ATOM     45  F7  UNL A   1      35.269  35.288  28.240  1.00  0.00    +0.000 F 
ATOM     46  C33 UNL A   1      34.254  33.169  28.018  1.00  0.00    +0.000 C 
ATOM     47  F8  UNL A   1      33.276  33.699  27.272  1.00  0.00    +0.000 F 
ATOM     48  C34 UNL A   1      34.245  31.813  28.312  1.00  0.00    +0.000 C 
ATOM     49  F9  UNL A   1      33.265  31.031  27.836  1.00  0.00    +0.000 F 
ATOM     50  C35 UNL A   1      35.249  31.264  29.104  1.00  0.00    +0.000 C 
ATOM     51  F10 UNL A   1      35.208  29.952  29.382  1.00  0.00    +0.000 F 
ENDBRANCH   40   41
BRANCH   55   56
ATOM     65  C44 UNL A   1      40.891  26.228  27.773  1.00  0.00    +0.000 C 
ATOM     66  F15 UNL A   1      40.111  25.610  28.672  1.00  0.00    +0.000 F 
ATOM     56  C39 UNL A   1      41.343  27.532  28.013  1.00  0.00    +0.000 C 
ATOM     57  C40 UNL A   1      42.160  28.131  27.044  1.00  0.00    +0.000 C 
ATOM     58  F11 UNL A   1      42.599  29.386  27.222  1.00  0.00    +0.000 F 
ATOM     59  C41 UNL A   1      42.499  27.457  25.874  1.00  0.00    +0.000 C 
ATOM     60  F12 UNL A   1      43.250  28.067  24.945  1.00  0.00    +0.000 F 
ATOM     61  C42 UNL A   1      42.049  26.163  25.660  1.00  0.00    +0.000 C 
ATOM     62  F13 UNL A   1      42.379  25.514  24.536  1.00  0.00    +0.000 F 
ATOM     63  C43 UNL A   1      41.251  25.545  26.612  1.00  0.00    +0.000 C 
ATOM     64  F14 UNL A   1      40.824  24.291  26.416  1.00  0.00    +0.000 F 
ENDBRANCH   55   56
TORSDOF 25
ENDMDL
MODEL 7
REMARK VINA RESULT:      -8.4     43.282     48.528
ROOT
ATOM    129  H26 UNL A   1      40.794  29.619  32.866  1.00  0.00    +0.000 H 
ATOM    130  H27 UNL A   1      37.245  32.989  34.018  1.00  0.00    +0.000 H 
ATOM    131  H28 UNL A   1      36.350  32.669  31.640  1.00  0.00    +0.000 H 
ATOM    132  H29 UNL A   1      43.901  26.380  29.552  1.00  0.00    +0.000 H 
ATOM    133  H30 UNL A   1      44.540  26.329  32.030  1.00  0.00    +0.000 H 
ATOM     19  C15 UNL A   1      43.038  28.138  33.637  1.00  0.00    +0.000 C 
ATOM     20  C16 UNL A   1      42.840  27.824  32.181  1.00  0.00    +0.000 C 
ATOM     21  N3  UNL A   1      41.952  28.297  31.344  1.00  0.00    +0.000 N 
ATOM     22  C17 UNL A   1      42.242  27.713  30.118  1.00  0.00    +0.000 C 
ATOM     23  C18 UNL A   1      41.577  27.838  28.945  1.00  0.00    +0.000 C 
ATOM     35  C25 UNL A   1      40.390  28.634  28.765  1.00  0.00    +0.000 C 
ATOM     36  C26 UNL A   1      39.606  28.772  27.634  1.00  0.00    +0.000 C 
ATOM     37  C27 UNL A   1      38.578  29.677  27.921  1.00  0.00    +0.000 C 
ATOM     38  C28 UNL A   1      38.700  30.072  29.244  1.00  0.00    +0.000 C 
ATOM     39  N4  UNL A   1      39.817  29.427  29.749  1.00  0.00    +0.000 N 
ATOM     40  C29 UNL A   1      37.862  30.973  29.993  1.00  0.00    +0.000 C 
ATOM     52  C36 UNL A   1      38.039  31.299  31.296  1.00  0.00    +0.000 C 
ATOM     53  N5  UNL A   1      39.018  30.865  32.178  1.00  0.00    +0.000 N 
ATOM     54  C37 UNL A   1      38.773  31.469  33.314  1.00  0.00    +0.000 C 
ATOM     55  C38 UNL A   1      39.501  31.355  34.626  1.00  0.00    +0.000 C 
ATOM     67  C45 UNL A   1      40.551  30.518  34.728  1.00  0.00    +0.000 C 
ATOM     68  C46 UNL A   1      41.345  30.298  35.932  1.00  0.00    +0.000 C 
ATOM     69  C47 UNL A   1      42.330  29.429  35.654  1.00  0.00    +0.000 C 
ATOM     70  C48 UNL A   1      42.216  29.007  34.257  1.00  0.00    +0.000 C 
ATOM     71  N6  UNL A   1      41.128  29.701  33.788  1.00  0.00    +0.000 N 
ATOM     72  C49 UNL A   1      37.620  32.380  33.275  1.00  0.00    +0.000 C 
ATOM     73  C50 UNL A   1      37.187  32.210  32.032  1.00  0.00    +0.000 C 
ATOM     74  C51 UNL A   1      43.416  26.888  30.308  1.00  0.00    +0.000 C 
ATOM     75  C52 UNL A   1      43.786  26.870  31.580  1.00  0.00    +0.000 C 
ATOM    124  H21 UNL A   1      39.752  28.289  26.734  1.00  0.00    +0.000 H 
ATOM    125  H22 UNL A   1      37.853  29.997  27.260  1.00  0.00    +0.000 H 
ATOM    126  H23 UNL A   1      40.155  29.518  30.669  1.00  0.00    +0.000 H 
ATOM    127  H24 UNL A   1      41.176  30.739  36.850  1.00  0.00    +0.000 H 
ATOM    128  H25 UNL A   1      43.052  29.111  36.318  1.00  0.00    +0.000 H 
ENDROOT
BRANCH   19   18
ATOM    134  H31 UNL A   1      43.093  25.856  35.037  1.00  0.00    +0.000 H 
ATOM    135  H32 UNL A   1      44.915  24.916  36.330  1.00  0.00    +0.000 H 
ATOM     76  C53 UNL A   1      44.007  26.335  35.063  1.00  0.00    +0.000 C 
ATOM     77  C54 UNL A   1      45.064  25.771  35.772  1.00  0.00    +0.000 C 
ATOM     15  C11 UNL A   1      46.328  26.367  35.728  1.00  0.00    +0.000 C 
ATOM     16  C12 UNL A   1      46.505  27.590  35.076  1.00  0.00    +0.000 C 
ATOM     17  C13 UNL A   1      45.428  28.188  34.419  1.00  0.00    +0.000 C 
ATOM     18  C14 UNL A   1      44.178  27.550  34.380  1.00  0.00    +0.000 C 
ATOM    122  H19 UNL A   1      47.429  28.050  35.082  1.00  0.00    +0.000 H 
ATOM    123  H20 UNL A   1      45.552  29.103  33.957  1.00  0.00    +0.000 H 
BRANCH   15   13
ATOM     13  C10 UNL A   1      47.495  25.726  36.373  1.00  0.00    +0.000 C 
ATOM     14  O2  UNL A   1      48.061  26.288  37.305  1.00  0.00    +0.000 O 
BRANCH   13   12
ATOM    121  H18 UNL A   1      48.600  24.563  35.171  1.00  0.00    +0.000 H 
ATOM     12  N2  UNL A   1      47.953  24.517  35.912  1.00  0.00    +0.000 N 
BRANCH   12   11
ATOM     11  C9  UNL A   1      47.616  23.178  36.366  1.00  0.00    +0.000 C 
ATOM    119  H16 UNL A   1      48.471  22.753  36.848  1.00  0.00    +0.000 H 
ATOM    120  H17 UNL A   1      46.788  23.261  37.040  1.00  0.00    +0.000 H 
BRANCH   11   10
ATOM     10  C8  UNL A   1      47.193  22.266  35.220  1.00  0.00    +0.000 C 
ATOM    117  H14 UNL A   1      46.955  22.880  34.377  1.00  0.00    +0.000 H 
ATOM    118  H15 UNL A   1      48.013  21.603  35.044  1.00  0.00    +0.000 H 
BRANCH   10    9
ATOM      9  C7  UNL A   1      45.982  21.380  35.520  1.00  0.00    +0.000 C 
ATOM    115  H12 UNL A   1      45.098  21.956  35.340  1.00  0.00    +0.000 H 
ATOM    116  H13 UNL A   1      46.072  20.527  34.880  1.00  0.00    +0.000 H 
BRANCH    9    8
ATOM    113  H10 UNL A   1      46.516  21.462  37.569  1.00  0.00    +0.000 H 
ATOM    114  H11 UNL A   1      44.874  20.840  37.212  1.00  0.00    +0.000 H 
ATOM      8  C6  UNL A   1      45.911  20.836  36.948  1.00  0.00    +0.000 C 
BRANCH    8    7
ATOM    111  H8  UNL A   1      45.849  18.773  36.440  1.00  0.00    +0.000 H 
ATOM      7  C5  UNL A   1      46.388  19.388  37.129  1.00  0.00    +0.000 C 
ATOM    112  H9  UNL A   1      47.444  19.396  36.954  1.00  0.00    +0.000 H 
BRANCH    7    6
ATOM    110  H7  UNL A   1      45.619  17.911  38.456  1.00  0.00    +0.000 H 
ATOM    109  H6  UNL A   1      45.683  19.532  39.141  1.00  0.00    +0.000 H 
ATOM      6  C4  UNL A   1      46.192  18.812  38.537  1.00  0.00    +0.000 C 
BRANCH    6    5
ATOM    108  H5  UNL A   1      47.632  17.544  39.370  1.00  0.00    +0.000 H 
ATOM      5  N1  UNL A   1      47.462  18.490  39.156  1.00  0.00    +0.000 N 
BRANCH    5    3
ATOM      3  C3  UNL A   1      48.447  19.389  39.469  1.00  0.00    +0.000 C 
ATOM      4  O1  UNL A   1      48.117  20.330  40.190  1.00  0.00    +0.000 O 
BRANCH    3    2
ATOM      2  C2  UNL A   1      49.868  19.159  38.925  1.00  0.00    +0.000 C 
ATOM    107  H4  UNL A   1      49.840  18.178  38.499  1.00  0.00    +0.000 H 
BRANCH    2    1
ATOM      1  C1  UNL A   1      50.867  19.276  40.084  1.00  0.00    +0.000 C 
ATOM    106  H3  UNL A   1      50.832  18.388  40.677  1.00  0.00    +0.000 H 
ATOM    105  H2  UNL A   1      51.854  19.405  39.691  1.00  0.00    +0.000 H 
ATOM    104  H1  UNL A   1      50.612  20.121  40.690  1.00  0.00    +0.000 H 
ENDBRANCH    2    1
BRANCH    2   78
ATOM    101  C75 UNL A   1      50.324  20.744  35.443  1.00  0.00    +0.000 C 
ATOM    102  F16 UNL A   1      49.991  20.448  34.176  1.00  0.00    +0.000 F 
ATOM    103  C76 UNL A   1      50.045  19.796  36.425  1.00  0.00    +0.000 C 
ATOM    136  H33 UNL A   1      51.275  21.450  39.045  1.00  0.00    +0.000 H 
ATOM    137  H34 UNL A   1      51.733  23.095  37.335  1.00  0.00    +0.000 H 
ATOM     78  C55 UNL A   1      50.318  20.059  37.772  1.00  0.00    +0.000 C 
ATOM     79  C56 UNL A   1      50.982  21.264  38.072  1.00  0.00    +0.000 C 
ATOM     80  C57 UNL A   1      51.255  22.217  37.080  1.00  0.00    +0.000 C 
ATOM     81  C58 UNL A   1      50.883  21.989  35.750  1.00  0.00    +0.000 C 
ATOM    154  H51 UNL A   1      49.631  18.890  36.157  1.00  0.00    +0.000 H 
BRANCH   81   82
ATOM    100  C74 UNL A   1      51.586  24.268  35.072  1.00  0.00    +0.000 C 
ATOM    138  H35 UNL A   1      49.999  22.012  33.171  1.00  0.00    +0.000 H 
ATOM    139  H36 UNL A   1      50.185  23.807  31.553  1.00  0.00    +0.000 H 
ATOM    140  H37 UNL A   1      51.277  25.890  32.161  1.00  0.00    +0.000 H 
ATOM     82  C59 UNL A   1      50.960  23.053  34.738  1.00  0.00    +0.000 C 
ATOM     83  C60 UNL A   1      50.456  22.896  33.440  1.00  0.00    +0.000 C 
ATOM     84  C61 UNL A   1      50.568  23.931  32.503  1.00  0.00    +0.000 C 
ATOM     85  C62 UNL A   1      51.195  25.128  32.851  1.00  0.00    +0.000 C 
ATOM     86  C63 UNL A   1      51.712  25.288  34.135  1.00  0.00    +0.000 C 
ATOM    153  H50 UNL A   1      51.957  24.405  36.025  1.00  0.00    +0.000 H 
BRANCH   86   87
ATOM     87  O3  UNL A   1      52.290  26.548  34.418  1.00  0.00    +0.000 O 
BRANCH   87   88
ATOM     89  O4  UNL A   1      53.646  27.410  36.119  1.00  0.00    +0.000 O 
ATOM     88  C64 UNL A   1      53.485  26.736  35.114  1.00  0.00    +0.000 C 
BRANCH   88   90
ATOM     90  N7  UNL A   1      54.539  26.053  34.565  1.00  0.00    +0.000 N 
ATOM    141  H38 UNL A   1      54.712  26.166  33.602  1.00  0.00    +0.000 H 
BRANCH   90   91
ATOM     91  C65 UNL A   1      55.413  25.178  35.310  1.00  0.00    +0.000 C 
ATOM    142  H39 UNL A   1      56.009  25.778  35.965  1.00  0.00    +0.000 H 
ATOM    143  H40 UNL A   1      55.995  24.642  34.589  1.00  0.00    +0.000 H 
BRANCH   91   92
ATOM    145  H42 UNL A   1      54.932  24.384  37.162  1.00  0.00    +0.000 H 
ATOM     92  C66 UNL A   1      54.687  24.127  36.152  1.00  0.00    +0.000 C 
ATOM    144  H41 UNL A   1      53.649  24.177  35.893  1.00  0.00    +0.000 H 
BRANCH   92   93
ATOM    146  H43 UNL A   1      54.931  22.199  36.965  1.00  0.00    +0.000 H 
ATOM    147  H44 UNL A   1      56.137  22.738  35.696  1.00  0.00    +0.000 H 
ATOM     93  C67 UNL A   1      55.119  22.661  36.019  1.00  0.00    +0.000 C 
BRANCH   93   94
ATOM     97  C71 UNL A   1      53.234  20.002  33.170  1.00  0.00    +0.000 C 
ATOM     98  C72 UNL A   1      53.508  19.590  34.469  1.00  0.00    +0.000 C 
ATOM     99  C73 UNL A   1      54.127  20.469  35.361  1.00  0.00    +0.000 C 
ATOM    148  H45 UNL A   1      54.479  23.108  33.341  1.00  0.00    +0.000 H 
ATOM    149  H46 UNL A   1      53.381  21.594  31.802  1.00  0.00    +0.000 H 
ATOM    150  H47 UNL A   1      52.771  19.358  32.509  1.00  0.00    +0.000 H 
ATOM    151  H48 UNL A   1      53.256  18.638  34.774  1.00  0.00    +0.000 H 
ATOM    152  H49 UNL A   1      54.317  20.159  36.326  1.00  0.00    +0.000 H 
ATOM     94  C68 UNL A   1      54.495  21.770  34.969  1.00  0.00    +0.000 C 
ATOM     95  C69 UNL A   1      54.217  22.160  33.657  1.00  0.00    +0.000 C 
ATOM     96  C70 UNL A   1      53.586  21.285  32.766  1.00  0.00    +0.000 C 
ENDBRANCH   93   94
ENDBRANCH   92   93
ENDBRANCH   91   92
ENDBRANCH   90   91
ENDBRANCH   88   90
ENDBRANCH   87   88
ENDBRANCH   86   87
ENDBRANCH   81   82
ENDBRANCH    2   78
ENDBRANCH    3    2
ENDBRANCH    5    3
ENDBRANCH    6    5
ENDBRANCH    7    6
ENDBRANCH    8    7
ENDBRANCH    9    8
ENDBRANCH   10    9
ENDBRANCH   11   10
ENDBRANCH   12   11
ENDBRANCH   13   12
ENDBRANCH   15   13
ENDBRANCH   19   18
BRANCH   23   24
ATOM     33  C24 UNL A   1      41.712  25.772  27.507  1.00  0.00    +0.000 C 
ATOM     34  F5  UNL A   1      40.820  25.170  28.309  1.00  0.00    +0.000 F 
ATOM     24  C19 UNL A   1      42.116  27.091  27.761  1.00  0.00    +0.000 C 
ATOM     25  C20 UNL A   1      43.054  27.669  26.893  1.00  0.00    +0.000 C 
ATOM     26  F1  UNL A   1      43.462  28.932  27.086  1.00  0.00    +0.000 F 
ATOM     27  C21 UNL A   1      43.547  26.964  25.798  1.00  0.00    +0.000 C 
ATOM     28  F2  UNL A   1      44.407  27.553  24.956  1.00  0.00    +0.000 F 
ATOM     29  C22 UNL A   1      43.139  25.658  25.571  1.00  0.00    +0.000 C 
ATOM     30  F3  UNL A   1      43.618  24.979  24.519  1.00  0.00    +0.000 F 
ATOM     31  C23 UNL A   1      42.228  25.060  26.428  1.00  0.00    +0.000 C 
ATOM     32  F4  UNL A   1      41.840  23.795  26.214  1.00  0.00    +0.000 F 
ENDBRANCH   23   24
BRANCH   40   41
ATOM     41  C30 UNL A   1      36.688  31.584  29.287  1.00  0.00    +0.000 C 
ATOM     42  C31 UNL A   1      35.563  30.822  28.939  1.00  0.00    +0.000 C 
ATOM     43  F6  UNL A   1      35.539  29.504  29.188  1.00  0.00    +0.000 F 
ATOM     44  C32 UNL A   1      34.474  31.408  28.301  1.00  0.00    +0.000 C 
ATOM     45  F7  UNL A   1      33.427  30.653  27.939  1.00  0.00    +0.000 F 
ATOM     46  C33 UNL A   1      34.475  32.767  28.025  1.00  0.00    +0.000 C 
ATOM     47  F8  UNL A   1      33.423  33.329  27.416  1.00  0.00    +0.000 F 
ATOM     48  C34 UNL A   1      35.571  33.542  28.376  1.00  0.00    +0.000 C 
ATOM     49  F9  UNL A   1      35.569  34.858  28.119  1.00  0.00    +0.000 F 
ATOM     50  C35 UNL A   1      36.673  32.956  28.991  1.00  0.00    +0.000 C 
ATOM     51  F10 UNL A   1      37.723  33.728  29.308  1.00  0.00    +0.000 F 
ENDBRANCH   40   41
BRANCH   55   56
ATOM     65  C44 UNL A   1      39.469  33.453  36.018  1.00  0.00    +0.000 C 
ATOM     66  F15 UNL A   1      40.283  34.049  35.133  1.00  0.00    +0.000 F 
ATOM     56  C39 UNL A   1      39.056  32.130  35.812  1.00  0.00    +0.000 C 
ATOM     57  C40 UNL A   1      38.209  31.553  36.769  1.00  0.00    +0.000 C 
ATOM     58  F11 UNL A   1      37.772  30.296  36.603  1.00  0.00    +0.000 F 
ATOM     59  C41 UNL A   1      37.780  32.276  37.879  1.00  0.00    +0.000 C 
ATOM     60  F12 UNL A   1      36.940  31.713  38.758  1.00  0.00    +0.000 F 
ATOM     61  C42 UNL A   1      38.209  33.581  38.068  1.00  0.00    +0.000 C 
ATOM     62  F13 UNL A   1      37.799  34.274  39.138  1.00  0.00    +0.000 F 
ATOM     63  C43 UNL A   1      39.058  34.168  37.142  1.00  0.00    +0.000 C 
ATOM     64  F14 UNL A   1      39.485  35.425  37.326  1.00  0.00    +0.000 F 
ENDBRANCH   55   56
TORSDOF 25
ENDMDL
MODEL 8
REMARK VINA RESULT:      -8.3     42.875     45.749
ROOT
ATOM    129  H26 UNL A   1      22.178  39.472  48.241  1.00  0.00    +0.000 H 
ATOM    130  H27 UNL A   1      18.597  42.221  50.455  1.00  0.00    +0.000 H 
ATOM    131  H28 UNL A   1      17.177  40.092  50.514  1.00  0.00    +0.000 H 
ATOM    132  H29 UNL A   1      24.358  35.065  45.605  1.00  0.00    +0.000 H 
ATOM    133  H30 UNL A   1      25.960  37.033  45.939  1.00  0.00    +0.000 H 
ATOM     19  C15 UNL A   1      24.738  39.316  47.126  1.00  0.00    +0.000 C 
ATOM     20  C16 UNL A   1      24.128  37.960  46.904  1.00  0.00    +0.000 C 
ATOM     21  N3  UNL A   1      22.927  37.532  47.201  1.00  0.00    +0.000 N 
ATOM     22  C17 UNL A   1      22.868  36.224  46.739  1.00  0.00    +0.000 C 
ATOM     23  C18 UNL A   1      21.856  35.333  46.856  1.00  0.00    +0.000 C 
ATOM     35  C25 UNL A   1      20.608  35.603  47.520  1.00  0.00    +0.000 C 
ATOM     36  C26 UNL A   1      19.547  34.745  47.750  1.00  0.00    +0.000 C 
ATOM     37  C27 UNL A   1      18.537  35.462  48.401  1.00  0.00    +0.000 C 
ATOM     38  C28 UNL A   1      18.984  36.756  48.612  1.00  0.00    +0.000 C 
ATOM     39  N4  UNL A   1      20.255  36.830  48.065  1.00  0.00    +0.000 N 
ATOM     40  C29 UNL A   1      18.305  37.847  49.263  1.00  0.00    +0.000 C 
ATOM     52  C36 UNL A   1      18.819  39.087  49.445  1.00  0.00    +0.000 C 
ATOM     53  N5  UNL A   1      20.061  39.579  49.070  1.00  0.00    +0.000 N 
ATOM     54  C37 UNL A   1      20.083  40.831  49.455  1.00  0.00    +0.000 C 
ATOM     55  C38 UNL A   1      21.189  41.844  49.329  1.00  0.00    +0.000 C 
ATOM     67  C45 UNL A   1      22.358  41.478  48.770  1.00  0.00    +0.000 C 
ATOM     68  C46 UNL A   1      23.518  42.344  48.588  1.00  0.00    +0.000 C 
ATOM     69  C47 UNL A   1      24.486  41.654  47.963  1.00  0.00    +0.000 C 
ATOM     70  C48 UNL A   1      24.024  40.285  47.730  1.00  0.00    +0.000 C 
ATOM     71  N6  UNL A   1      22.752  40.271  48.246  1.00  0.00    +0.000 N 
ATOM     72  C49 UNL A   1      18.842  41.285  50.098  1.00  0.00    +0.000 C 
ATOM     73  C50 UNL A   1      18.119  40.173  50.099  1.00  0.00    +0.000 C 
ATOM     74  C51 UNL A   1      24.136  35.944  46.099  1.00  0.00    +0.000 C 
ATOM     75  C52 UNL A   1      24.974  36.961  46.232  1.00  0.00    +0.000 C 
ATOM    124  H21 UNL A   1      19.508  33.748  47.488  1.00  0.00    +0.000 H 
ATOM    125  H22 UNL A   1      17.614  35.090  48.676  1.00  0.00    +0.000 H 
ATOM    126  H23 UNL A   1      20.824  37.634  48.061  1.00  0.00    +0.000 H 
ATOM    127  H24 UNL A   1      23.584  43.329  48.891  1.00  0.00    +0.000 H 
ATOM    128  H25 UNL A   1      25.408  42.029  47.691  1.00  0.00    +0.000 H 
ENDROOT
BRANCH   19   18
ATOM    134  H31 UNL A   1      27.086  38.584  48.185  1.00  0.00    +0.000 H 
ATOM    135  H32 UNL A   1      29.324  39.130  47.430  1.00  0.00    +0.000 H 
ATOM     76  C53 UNL A   1      27.218  39.141  47.326  1.00  0.00    +0.000 C 
ATOM     77  C54 UNL A   1      28.505  39.418  46.871  1.00  0.00    +0.000 C 
ATOM     15  C11 UNL A   1      28.685  40.088  45.658  1.00  0.00    +0.000 C 
ATOM     16  C12 UNL A   1      27.582  40.587  44.961  1.00  0.00    +0.000 C 
ATOM     17  C13 UNL A   1      26.294  40.365  45.451  1.00  0.00    +0.000 C 
ATOM     18  C14 UNL A   1      26.100  39.614  46.621  1.00  0.00    +0.000 C 
ATOM    122  H19 UNL A   1      27.719  41.120  44.087  1.00  0.00    +0.000 H 
ATOM    123  H20 UNL A   1      25.479  40.754  44.951  1.00  0.00    +0.000 H 
BRANCH   15   13
ATOM     13  C10 UNL A   1      30.037  40.289  45.092  1.00  0.00    +0.000 C 
ATOM     14  O2  UNL A   1      30.295  39.874  43.967  1.00  0.00    +0.000 O 
BRANCH   13   12
ATOM    121  H18 UNL A   1      30.694  41.321  46.680  1.00  0.00    +0.000 H 
ATOM     12  N2  UNL A   1      31.003  40.921  45.835  1.00  0.00    +0.000 N 
BRANCH   12   11
ATOM     11  C9  UNL A   1      32.419  41.082  45.548  1.00  0.00    +0.000 C 
ATOM    119  H16 UNL A   1      32.903  40.135  45.664  1.00  0.00    +0.000 H 
ATOM    120  H17 UNL A   1      32.510  41.448  44.546  1.00  0.00    +0.000 H 
BRANCH   11   10
ATOM     10  C8  UNL A   1      33.088  42.092  46.474  1.00  0.00    +0.000 C 
ATOM    117  H14 UNL A   1      32.624  42.020  47.435  1.00  0.00    +0.000 H 
ATOM    118  H15 UNL A   1      34.129  41.844  46.487  1.00  0.00    +0.000 H 
BRANCH   10    9
ATOM      9  C7  UNL A   1      32.998  43.546  46.009  1.00  0.00    +0.000 C 
ATOM    115  H12 UNL A   1      32.144  43.637  45.370  1.00  0.00    +0.000 H 
ATOM    116  H13 UNL A   1      32.931  44.139  46.896  1.00  0.00    +0.000 H 
BRANCH    9    8
ATOM    113  H10 UNL A   1      33.920  44.251  44.235  1.00  0.00    +0.000 H 
ATOM    114  H11 UNL A   1      34.547  44.934  45.768  1.00  0.00    +0.000 H 
ATOM      8  C6  UNL A   1      34.219  44.061  45.243  1.00  0.00    +0.000 C 
BRANCH    8    7
ATOM    111  H8  UNL A   1      36.238  43.588  45.716  1.00  0.00    +0.000 H 
ATOM      7  C5  UNL A   1      35.425  43.112  45.208  1.00  0.00    +0.000 C 
ATOM    112  H9  UNL A   1      35.106  42.204  45.676  1.00  0.00    +0.000 H 
BRANCH    7    6
ATOM    110  H7  UNL A   1      35.085  42.275  43.280  1.00  0.00    +0.000 H 
ATOM    109  H6  UNL A   1      36.720  42.038  43.890  1.00  0.00    +0.000 H 
ATOM      6  C4  UNL A   1      35.904  42.724  43.804  1.00  0.00    +0.000 C 
BRANCH    6    5
ATOM    108  H5  UNL A   1      35.734  44.230  42.362  1.00  0.00    +0.000 H 
ATOM      5  N1  UNL A   1      36.342  43.885  43.055  1.00  0.00    +0.000 N 
BRANCH    5    3
ATOM      3  C3  UNL A   1      37.529  44.545  43.231  1.00  0.00    +0.000 C 
ATOM      4  O1  UNL A   1      38.513  43.843  43.467  1.00  0.00    +0.000 O 
BRANCH    3    2
ATOM      2  C2  UNL A   1      37.557  46.078  43.107  1.00  0.00    +0.000 C 
ATOM    107  H4  UNL A   1      37.424  46.269  42.063  1.00  0.00    +0.000 H 
BRANCH    2    1
ATOM      1  C1  UNL A   1      38.900  46.595  43.641  1.00  0.00    +0.000 C 
ATOM    106  H3  UNL A   1      39.700  46.104  43.129  1.00  0.00    +0.000 H 
ATOM    105  H2  UNL A   1      38.966  47.650  43.478  1.00  0.00    +0.000 H 
ATOM    104  H1  UNL A   1      38.969  46.391  44.690  1.00  0.00    +0.000 H 
ENDBRANCH    2    1
BRANCH    2   78
ATOM    101  C75 UNL A   1      34.255  47.953  43.763  1.00  0.00    +0.000 C 
ATOM    102  F16 UNL A   1      33.247  48.455  43.032  1.00  0.00    +0.000 F 
ATOM    103  C76 UNL A   1      35.352  47.429  43.083  1.00  0.00    +0.000 C 
ATOM    136  H33 UNL A   1      37.184  46.561  45.729  1.00  0.00    +0.000 H 
ATOM    137  H34 UNL A   1      35.265  47.452  46.898  1.00  0.00    +0.000 H 
ATOM     78  C55 UNL A   1      36.414  46.844  43.779  1.00  0.00    +0.000 C 
ATOM     79  C56 UNL A   1      36.377  46.907  45.186  1.00  0.00    +0.000 C 
ATOM     80  C57 UNL A   1      35.267  47.429  45.866  1.00  0.00    +0.000 C 
ATOM     81  C58 UNL A   1      34.162  47.919  45.159  1.00  0.00    +0.000 C 
ATOM    154  H51 UNL A   1      35.381  47.473  42.052  1.00  0.00    +0.000 H 
BRANCH   81   82
ATOM    100  C74 UNL A   1      32.147  47.244  46.438  1.00  0.00    +0.000 C 
ATOM    138  H35 UNL A   1      32.991  50.354  45.521  1.00  0.00    +0.000 H 
ATOM    139  H36 UNL A   1      30.922  50.849  46.683  1.00  0.00    +0.000 H 
ATOM    140  H37 UNL A   1      29.638  49.059  47.706  1.00  0.00    +0.000 H 
ATOM     82  C59 UNL A   1      32.907  48.268  45.841  1.00  0.00    +0.000 C 
ATOM     83  C60 UNL A   1      32.447  49.587  45.945  1.00  0.00    +0.000 C 
ATOM     84  C61 UNL A   1      31.255  49.875  46.620  1.00  0.00    +0.000 C 
ATOM     85  C62 UNL A   1      30.516  48.847  47.209  1.00  0.00    +0.000 C 
ATOM     86  C63 UNL A   1      30.973  47.534  47.123  1.00  0.00    +0.000 C 
ATOM    153  H50 UNL A   1      32.466  46.265  46.365  1.00  0.00    +0.000 H 
BRANCH   86   87
ATOM     87  O3  UNL A   1      30.141  46.549  47.707  1.00  0.00    +0.000 O 
BRANCH   87   88
ATOM     89  O4  UNL A   1      31.295  45.412  49.394  1.00  0.00    +0.000 O 
ATOM     88  C64 UNL A   1      30.601  45.423  48.391  1.00  0.00    +0.000 C 
BRANCH   88   90
ATOM     90  N7  UNL A   1      30.177  44.245  47.831  1.00  0.00    +0.000 N 
ATOM    141  H38 UNL A   1      30.423  44.064  46.895  1.00  0.00    +0.000 H 
BRANCH   90   91
ATOM     91  C65 UNL A   1      29.394  43.252  48.528  1.00  0.00    +0.000 C 
ATOM    142  H39 UNL A   1      29.192  43.617  49.513  1.00  0.00    +0.000 H 
ATOM    143  H40 UNL A   1      29.971  42.351  48.526  1.00  0.00    +0.000 H 
BRANCH   91   92
ATOM    145  H42 UNL A   1      28.331  42.300  47.027  1.00  0.00    +0.000 H 
ATOM     92  C66 UNL A   1      28.060  42.916  47.860  1.00  0.00    +0.000 C 
ATOM    144  H41 UNL A   1      27.441  42.456  48.602  1.00  0.00    +0.000 H 
BRANCH   92   93
ATOM    146  H43 UNL A   1      26.750  43.652  46.382  1.00  0.00    +0.000 H 
ATOM    147  H44 UNL A   1      27.987  44.816  47.069  1.00  0.00    +0.000 H 
ATOM     93  C67 UNL A   1      27.248  44.060  47.237  1.00  0.00    +0.000 C 
BRANCH   93   94
ATOM     97  C71 UNL A   1      24.097  46.091  49.402  1.00  0.00    +0.000 C 
ATOM     98  C72 UNL A   1      24.080  46.006  48.015  1.00  0.00    +0.000 C 
ATOM     99  C73 UNL A   1      25.118  45.352  47.345  1.00  0.00    +0.000 C 
ATOM    148  H45 UNL A   1      26.978  44.481  49.981  1.00  0.00    +0.000 H 
ATOM    149  H46 UNL A   1      25.166  45.590  51.143  1.00  0.00    +0.000 H 
ATOM    150  H47 UNL A   1      23.329  46.567  49.901  1.00  0.00    +0.000 H 
ATOM    151  H48 UNL A   1      23.304  46.425  47.480  1.00  0.00    +0.000 H 
ATOM    152  H49 UNL A   1      25.092  45.285  46.316  1.00  0.00    +0.000 H 
ATOM     94  C68 UNL A   1      26.197  44.783  48.047  1.00  0.00    +0.000 C 
ATOM     95  C69 UNL A   1      26.197  44.886  49.440  1.00  0.00    +0.000 C 
ATOM     96  C70 UNL A   1      25.153  45.530  50.113  1.00  0.00    +0.000 C 
ENDBRANCH   93   94
ENDBRANCH   92   93
ENDBRANCH   91   92
ENDBRANCH   90   91
ENDBRANCH   88   90
ENDBRANCH   87   88
ENDBRANCH   86   87
ENDBRANCH   81   82
ENDBRANCH    2   78
ENDBRANCH    3    2
ENDBRANCH    5    3
ENDBRANCH    6    5
ENDBRANCH    7    6
ENDBRANCH    8    7
ENDBRANCH    9    8
ENDBRANCH   10    9
ENDBRANCH   11   10
ENDBRANCH   12   11
ENDBRANCH   13   12
ENDBRANCH   15   13
ENDBRANCH   19   18
BRANCH   23   24
ATOM     33  C24 UNL A   1      22.851  33.017  46.905  1.00  0.00    +0.000 C 
ATOM     34  F5  UNL A   1      23.419  33.300  48.088  1.00  0.00    +0.000 F 
ATOM     24  C19 UNL A   1      22.058  33.974  46.254  1.00  0.00    +0.000 C 
ATOM     25  C20 UNL A   1      21.493  33.626  45.018  1.00  0.00    +0.000 C 
ATOM     26  F1  UNL A   1      20.717  34.501  44.362  1.00  0.00    +0.000 F 
ATOM     27  C21 UNL A   1      21.689  32.361  44.470  1.00  0.00    +0.000 C 
ATOM     28  F2  UNL A   1      21.100  32.036  43.311  1.00  0.00    +0.000 F 
ATOM     29  C22 UNL A   1      22.483  31.434  45.129  1.00  0.00    +0.000 C 
ATOM     30  F3  UNL A   1      22.675  30.218  44.598  1.00  0.00    +0.000 F 
ATOM     31  C23 UNL A   1      23.069  31.763  46.341  1.00  0.00    +0.000 C 
ATOM     32  F4  UNL A   1      23.843  30.871  46.974  1.00  0.00    +0.000 F 
ENDBRANCH   23   24
BRANCH   40   41
ATOM     41  C30 UNL A   1      16.928  37.590  49.801  1.00  0.00    +0.000 C 
ATOM     42  C31 UNL A   1      16.683  37.510  51.179  1.00  0.00    +0.000 C 
ATOM     43  F6  UNL A   1      17.698  37.610  52.052  1.00  0.00    +0.000 F 
ATOM     44  C32 UNL A   1      15.397  37.289  51.664  1.00  0.00    +0.000 C 
ATOM     45  F7  UNL A   1      15.192  37.174  52.984  1.00  0.00    +0.000 F 
ATOM     46  C33 UNL A   1      14.331  37.175  50.785  1.00  0.00    +0.000 C 
ATOM     47  F8  UNL A   1      13.093  36.968  51.254  1.00  0.00    +0.000 F 
ATOM     48  C34 UNL A   1      14.549  37.267  49.418  1.00  0.00    +0.000 C 
ATOM     49  F9  UNL A   1      13.517  37.167  48.568  1.00  0.00    +0.000 F 
ATOM     50  C35 UNL A   1      15.837  37.462  48.929  1.00  0.00    +0.000 C 
ATOM     51  F10 UNL A   1      16.019  37.536  47.602  1.00  0.00    +0.000 F 
ENDBRANCH   40   41
BRANCH   55   56
ATOM     65  C44 UNL A   1      20.585  44.266  49.005  1.00  0.00    +0.000 C 
ATOM     66  F15 UNL A   1      20.319  44.024  47.713  1.00  0.00    +0.000 F 
ATOM     56  C39 UNL A   1      21.016  43.227  49.841  1.00  0.00    +0.000 C 
ATOM     57  C40 UNL A   1      21.286  43.534  51.182  1.00  0.00    +0.000 C 
ATOM     58  F11 UNL A   1      21.680  42.567  52.022  1.00  0.00    +0.000 F 
ATOM     59  C41 UNL A   1      21.117  44.827  51.670  1.00  0.00    +0.000 C 
ATOM     60  F12 UNL A   1      21.344  45.086  52.966  1.00  0.00    +0.000 F 
ATOM     61  C42 UNL A   1      20.699  45.843  50.824  1.00  0.00    +0.000 C 
ATOM     62  F13 UNL A   1      20.541  47.086  51.294  1.00  0.00    +0.000 F 
ATOM     63  C43 UNL A   1      20.440  45.565  49.490  1.00  0.00    +0.000 C 
ATOM     64  F14 UNL A   1      20.048  46.545  48.665  1.00  0.00    +0.000 F 
ENDBRANCH   55   56
TORSDOF 25
ENDMDL
MODEL 9
REMARK VINA RESULT:      -8.3     61.787     68.696
ROOT
ATOM    129  H26 UNL A   1      47.665  10.017  50.212  1.00  0.00    +0.000 H 
ATOM    130  H27 UNL A   1      48.125   6.714  53.976  1.00  0.00    +0.000 H 
ATOM    131  H28 UNL A   1      50.148   8.077  54.754  1.00  0.00    +0.000 H 
ATOM    132  H29 UNL A   1      49.219  14.154  46.809  1.00  0.00    +0.000 H 
ATOM    133  H30 UNL A   1      46.949  13.099  46.271  1.00  0.00    +0.000 H 
ATOM     19  C15 UNL A   1      46.298  10.877  47.930  1.00  0.00    +0.000 C 
ATOM     20  C16 UNL A   1      47.480  11.796  48.050  1.00  0.00    +0.000 C 
ATOM     21  N3  UNL A   1      48.454  11.785  48.926  1.00  0.00    +0.000 N 
ATOM     22  C17 UNL A   1      49.306  12.817  48.556  1.00  0.00    +0.000 C 
ATOM     23  C18 UNL A   1      50.428  13.249  49.178  1.00  0.00    +0.000 C 
ATOM     35  C25 UNL A   1      50.951  12.684  50.395  1.00  0.00    +0.000 C 
ATOM     36  C26 UNL A   1      52.043  13.094  51.139  1.00  0.00    +0.000 C 
ATOM     37  C27 UNL A   1      52.188  12.221  52.222  1.00  0.00    +0.000 C 
ATOM     38  C28 UNL A   1      51.162  11.291  52.176  1.00  0.00    +0.000 C 
ATOM     39  N4  UNL A   1      50.412  11.585  51.049  1.00  0.00    +0.000 N 
ATOM     40  C29 UNL A   1      50.884  10.213  53.090  1.00  0.00    +0.000 C 
ATOM     52  C36 UNL A   1      49.846   9.350  52.983  1.00  0.00    +0.000 C 
ATOM     53  N5  UNL A   1      48.848   9.302  52.020  1.00  0.00    +0.000 N 
ATOM     54  C37 UNL A   1      48.085   8.287  52.343  1.00  0.00    +0.000 C 
ATOM     55  C38 UNL A   1      46.840   7.781  51.666  1.00  0.00    +0.000 C 
ATOM     67  C45 UNL A   1      46.373   8.425  50.579  1.00  0.00    +0.000 C 
ATOM     68  C46 UNL A   1      45.179   8.058  49.825  1.00  0.00    +0.000 C 
ATOM     69  C47 UNL A   1      45.042   8.897  48.785  1.00  0.00    +0.000 C 
ATOM     70  C48 UNL A   1      46.124   9.882  48.820  1.00  0.00    +0.000 C 
ATOM     71  N6  UNL A   1      46.862   9.527  49.922  1.00  0.00    +0.000 N 
ATOM     72  C49 UNL A   1      48.529   7.557  53.539  1.00  0.00    +0.000 C 
ATOM     73  C50 UNL A   1      49.584   8.269  53.911  1.00  0.00    +0.000 C 
ATOM     74  C51 UNL A   1      48.762  13.404  47.350  1.00  0.00    +0.000 C 
ATOM     75  C52 UNL A   1      47.600  12.853  47.032  1.00  0.00    +0.000 C 
ATOM    124  H21 UNL A   1      52.646  13.905  50.930  1.00  0.00    +0.000 H 
ATOM    125  H22 UNL A   1      52.933  12.262  52.935  1.00  0.00    +0.000 H 
ATOM    126  H23 UNL A   1      49.615  11.088  50.754  1.00  0.00    +0.000 H 
ATOM    127  H24 UNL A   1      44.542   7.278  50.054  1.00  0.00    +0.000 H 
ATOM    128  H25 UNL A   1      44.294   8.853  48.076  1.00  0.00    +0.000 H 
ENDROOT
BRANCH   19   18
ATOM    134  H31 UNL A   1      46.391   9.650  45.552  1.00  0.00    +0.000 H 
ATOM    135  H32 UNL A   1      44.917   9.924  43.647  1.00  0.00    +0.000 H 
ATOM     76  C53 UNL A   1      45.579  10.285  45.615  1.00  0.00    +0.000 C 
ATOM     77  C54 UNL A   1      44.711  10.409  44.534  1.00  0.00    +0.000 C 
ATOM     15  C11 UNL A   1      43.560  11.194  44.652  1.00  0.00    +0.000 C 
ATOM     16  C12 UNL A   1      43.341  11.949  45.807  1.00  0.00    +0.000 C 
ATOM     17  C13 UNL A   1      44.247  11.873  46.867  1.00  0.00    +0.000 C 
ATOM     18  C14 UNL A   1      45.357  11.017  46.792  1.00  0.00    +0.000 C 
ATOM    122  H19 UNL A   1      42.513  12.561  45.876  1.00  0.00    +0.000 H 
ATOM    123  H20 UNL A   1      44.099  12.449  47.711  1.00  0.00    +0.000 H 
BRANCH   15   13
ATOM     13  C10 UNL A   1      42.560  11.248  43.564  1.00  0.00    +0.000 C 
ATOM     14  O2  UNL A   1      41.747  10.338  43.437  1.00  0.00    +0.000 O 
BRANCH   13   12
ATOM    121  H18 UNL A   1      43.279  12.303  42.019  1.00  0.00    +0.000 H 
ATOM     12  N2  UNL A   1      42.558  12.306  42.688  1.00  0.00    +0.000 N 
BRANCH   12   11
ATOM     11  C9  UNL A   1      41.639  13.430  42.613  1.00  0.00    +0.000 C 
ATOM    119  H16 UNL A   1      41.568  13.748  41.594  1.00  0.00    +0.000 H 
ATOM    120  H17 UNL A   1      40.691  13.101  42.987  1.00  0.00    +0.000 H 
BRANCH   11   10
ATOM     10  C8  UNL A   1      42.093  14.609  43.466  1.00  0.00    +0.000 C 
ATOM    117  H14 UNL A   1      41.688  15.503  43.040  1.00  0.00    +0.000 H 
ATOM    118  H15 UNL A   1      41.741  14.416  44.457  1.00  0.00    +0.000 H 
BRANCH   10    9
ATOM      9  C7  UNL A   1      43.609  14.777  43.574  1.00  0.00    +0.000 C 
ATOM    115  H12 UNL A   1      43.855  14.917  44.607  1.00  0.00    +0.000 H 
ATOM    116  H13 UNL A   1      44.037  13.893  43.150  1.00  0.00    +0.000 H 
BRANCH    9    8
ATOM    113  H10 UNL A   1      45.188  15.695  42.497  1.00  0.00    +0.000 H 
ATOM    114  H11 UNL A   1      43.529  16.107  41.959  1.00  0.00    +0.000 H 
ATOM      8  C6  UNL A   1      44.191  15.953  42.786  1.00  0.00    +0.000 C 
BRANCH    8    7
ATOM    111  H8  UNL A   1      44.198  18.078  42.817  1.00  0.00    +0.000 H 
ATOM      7  C5  UNL A   1      44.247  17.289  43.538  1.00  0.00    +0.000 C 
ATOM    112  H9  UNL A   1      43.420  17.285  44.218  1.00  0.00    +0.000 H 
BRANCH    7    6
ATOM    110  H7  UNL A   1      45.628  18.552  44.553  1.00  0.00    +0.000 H 
ATOM    109  H6  UNL A   1      46.347  17.093  43.879  1.00  0.00    +0.000 H 
ATOM      6  C4  UNL A   1      45.503  17.501  44.392  1.00  0.00    +0.000 C 
BRANCH    6    5
ATOM    108  H5  UNL A   1      45.483  15.877  45.710  1.00  0.00    +0.000 H 
ATOM      5  N1  UNL A   1      45.378  16.855  45.684  1.00  0.00    +0.000 N 
BRANCH    5    3
ATOM      3  C3  UNL A   1      45.127  17.491  46.871  1.00  0.00    +0.000 C 
ATOM      4  O1  UNL A   1      44.340  18.437  46.827  1.00  0.00    +0.000 O 
BRANCH    3    2
ATOM      2  C2  UNL A   1      45.813  16.981  48.150  1.00  0.00    +0.000 C 
ATOM    107  H4  UNL A   1      45.633  17.744  48.878  1.00  0.00    +0.000 H 
BRANCH    2    1
ATOM      1  C1  UNL A   1      47.306  16.771  47.863  1.00  0.00    +0.000 C 
ATOM    106  H3  UNL A   1      47.699  17.635  47.371  1.00  0.00    +0.000 H 
ATOM    105  H2  UNL A   1      47.828  16.616  48.784  1.00  0.00    +0.000 H 
ATOM    104  H1  UNL A   1      47.431  15.914  47.233  1.00  0.00    +0.000 H 
ENDBRANCH    2    1
BRANCH    2   78
ATOM    101  C75 UNL A   1      45.378  13.746  50.198  1.00  0.00    +0.000 C 
ATOM    102  F16 UNL A   1      46.162  12.914  50.903  1.00  0.00    +0.000 F 
ATOM    103  C76 UNL A   1      45.993  14.780  49.496  1.00  0.00    +0.000 C 
ATOM    136  H33 UNL A   1      43.264  16.117  48.128  1.00  0.00    +0.000 H 
ATOM    137  H34 UNL A   1      42.205  14.333  49.369  1.00  0.00    +0.000 H 
ATOM     78  C55 UNL A   1      45.234  15.713  48.783  1.00  0.00    +0.000 C 
ATOM     79  C56 UNL A   1      43.843  15.497  48.716  1.00  0.00    +0.000 C 
ATOM     80  C57 UNL A   1      43.228  14.459  49.430  1.00  0.00    +0.000 C 
ATOM     81  C58 UNL A   1      43.987  13.592  50.225  1.00  0.00    +0.000 C 
ATOM    154  H51 UNL A   1      47.022  14.859  49.502  1.00  0.00    +0.000 H 
BRANCH   81   82
ATOM    100  C74 UNL A   1      42.447  13.124  52.112  1.00  0.00    +0.000 C 
ATOM    138  H35 UNL A   1      44.240  10.881  50.384  1.00  0.00    +0.000 H 
ATOM    139  H36 UNL A   1      43.132   9.374  51.927  1.00  0.00    +0.000 H 
ATOM    140  H37 UNL A   1      41.576  10.244  53.576  1.00  0.00    +0.000 H 
ATOM     82  C59 UNL A   1      43.351  12.640  51.147  1.00  0.00    +0.000 C 
ATOM     83  C60 UNL A   1      43.587  11.260  51.088  1.00  0.00    +0.000 C 
ATOM     84  C61 UNL A   1      42.944  10.388  51.974  1.00  0.00    +0.000 C 
ATOM     85  C62 UNL A   1      42.049  10.886  52.922  1.00  0.00    +0.000 C 
ATOM     86  C63 UNL A   1      41.797  12.255  52.980  1.00  0.00    +0.000 C 
ATOM    153  H50 UNL A   1      42.266  14.138  52.176  1.00  0.00    +0.000 H 
BRANCH   86   87
ATOM     87  O3  UNL A   1      40.912  12.680  53.999  1.00  0.00    +0.000 O 
BRANCH   87   88
ATOM     89  O4  UNL A   1      40.354  12.716  56.271  1.00  0.00    +0.000 O 
ATOM     88  C64 UNL A   1      41.159  12.563  55.368  1.00  0.00    +0.000 C 
BRANCH   88   90
ATOM     90  N7  UNL A   1      42.458  12.224  55.651  1.00  0.00    +0.000 N 
ATOM    141  H38 UNL A   1      42.747  11.302  55.460  1.00  0.00    +0.000 H 
BRANCH   90   91
ATOM     91  C65 UNL A   1      43.429  13.135  56.210  1.00  0.00    +0.000 C 
ATOM    142  H39 UNL A   1      44.126  12.567  56.788  1.00  0.00    +0.000 H 
ATOM    143  H40 UNL A   1      42.880  13.844  56.795  1.00  0.00    +0.000 H 
BRANCH   91   92
ATOM    145  H42 UNL A   1      43.475  14.217  54.445  1.00  0.00    +0.000 H 
ATOM     92  C66 UNL A   1      44.211  13.940  55.172  1.00  0.00    +0.000 C 
ATOM    144  H41 UNL A   1      44.686  14.748  55.690  1.00  0.00    +0.000 H 
BRANCH   92   93
ATOM    146  H43 UNL A   1      44.805  12.780  53.516  1.00  0.00    +0.000 H 
ATOM    147  H44 UNL A   1      45.740  12.565  55.077  1.00  0.00    +0.000 H 
ATOM     93  C67 UNL A   1      45.296  13.222  54.358  1.00  0.00    +0.000 C 
BRANCH   93   94
ATOM     97  C71 UNL A   1      48.782  15.229  52.758  1.00  0.00    +0.000 C 
ATOM     98  C72 UNL A   1      48.867  13.946  53.285  1.00  0.00    +0.000 C 
ATOM     99  C73 UNL A   1      47.725  13.330  53.803  1.00  0.00    +0.000 C 
ATOM    148  H45 UNL A   1      45.521  15.788  53.288  1.00  0.00    +0.000 H 
ATOM    149  H46 UNL A   1      47.494  16.846  52.365  1.00  0.00    +0.000 H 
ATOM    150  H47 UNL A   1      49.622  15.686  52.369  1.00  0.00    +0.000 H 
ATOM    151  H48 UNL A   1      49.771  13.449  53.295  1.00  0.00    +0.000 H 
ATOM    152  H49 UNL A   1      47.795  12.374  54.183  1.00  0.00    +0.000 H 
ATOM     94  C68 UNL A   1      46.481  13.988  53.817  1.00  0.00    +0.000 C 
ATOM     95  C69 UNL A   1      46.420  15.280  53.288  1.00  0.00    +0.000 C 
ATOM     96  C70 UNL A   1      47.560  15.894  52.759  1.00  0.00    +0.000 C 
ENDBRANCH   93   94
ENDBRANCH   92   93
ENDBRANCH   91   92
ENDBRANCH   90   91
ENDBRANCH   88   90
ENDBRANCH   87   88
ENDBRANCH   86   87
ENDBRANCH   81   82
ENDBRANCH    2   78
ENDBRANCH    3    2
ENDBRANCH    5    3
ENDBRANCH    6    5
ENDBRANCH    7    6
ENDBRANCH    8    7
ENDBRANCH    9    8
ENDBRANCH   10    9
ENDBRANCH   11   10
ENDBRANCH   12   11
ENDBRANCH   13   12
ENDBRANCH   15   13
ENDBRANCH   19   18
BRANCH   23   24
ATOM     33  C24 UNL A   1      50.811  15.718  48.846  1.00  0.00    +0.000 C 
ATOM     34  F5  UNL A   1      49.817  15.976  49.710  1.00  0.00    +0.000 F 
ATOM     24  C19 UNL A   1      51.168  14.393  48.553  1.00  0.00    +0.000 C 
ATOM     25  C20 UNL A   1      52.212  14.183  47.639  1.00  0.00    +0.000 C 
ATOM     26  F1  UNL A   1      52.600  12.935  47.335  1.00  0.00    +0.000 F 
ATOM     27  C21 UNL A   1      52.891  15.254  47.065  1.00  0.00    +0.000 C 
ATOM     28  F2  UNL A   1      53.916  15.028  46.232  1.00  0.00    +0.000 F 
ATOM     29  C22 UNL A   1      52.516  16.556  47.365  1.00  0.00    +0.000 C 
ATOM     30  F3  UNL A   1      53.167  17.587  46.809  1.00  0.00    +0.000 F 
ATOM     31  C23 UNL A   1      51.473  16.788  48.249  1.00  0.00    +0.000 C 
ATOM     32  F4  UNL A   1      51.104  18.045  48.532  1.00  0.00    +0.000 F 
ENDBRANCH   23   24
BRANCH   40   41
ATOM     41  C30 UNL A   1      51.803  10.039  54.264  1.00  0.00    +0.000 C 
ATOM     42  C31 UNL A   1      52.953   9.242  54.183  1.00  0.00    +0.000 C 
ATOM     43  F6  UNL A   1      53.229   8.569  53.056  1.00  0.00    +0.000 F 
ATOM     44  C32 UNL A   1      53.805   9.106  55.275  1.00  0.00    +0.000 C 
ATOM     45  F7  UNL A   1      54.877   8.305  55.190  1.00  0.00    +0.000 F 
ATOM     46  C33 UNL A   1      53.540   9.784  56.455  1.00  0.00    +0.000 C 
ATOM     47  F8  UNL A   1      54.365   9.656  57.503  1.00  0.00    +0.000 F 
ATOM     48  C34 UNL A   1      52.416  10.592  56.550  1.00  0.00    +0.000 C 
ATOM     49  F9  UNL A   1      52.164  11.256  57.687  1.00  0.00    +0.000 F 
ATOM     50  C35 UNL A   1      51.548  10.710  55.469  1.00  0.00    +0.000 C 
ATOM     51  F10 UNL A   1      50.463  11.489  55.595  1.00  0.00    +0.000 F 
ENDBRANCH   40   41
BRANCH   55   56
ATOM     65  C44 UNL A   1      46.487   5.297  51.866  1.00  0.00    +0.000 C 
ATOM     66  F15 UNL A   1      47.530   5.086  51.050  1.00  0.00    +0.000 F 
ATOM     56  C39 UNL A   1      46.108   6.604  52.199  1.00  0.00    +0.000 C 
ATOM     57  C40 UNL A   1      45.007   6.770  53.051  1.00  0.00    +0.000 C 
ATOM     58  F11 UNL A   1      44.623   8.003  53.413  1.00  0.00    +0.000 F 
ATOM     59  C41 UNL A   1      44.322   5.672  53.562  1.00  0.00    +0.000 C 
ATOM     60  F12 UNL A   1      43.297   5.857  54.406  1.00  0.00    +0.000 F 
ATOM     61  C42 UNL A   1      44.707   4.386  53.212  1.00  0.00    +0.000 C 
ATOM     62  F13 UNL A   1      44.045   3.330  53.701  1.00  0.00    +0.000 F 
ATOM     63  C43 UNL A   1      45.785   4.198  52.359  1.00  0.00    +0.000 C 
ATOM     64  F14 UNL A   1      46.153   2.959  52.008  1.00  0.00    +0.000 F 
ENDBRANCH   55   56
TORSDOF 25
ENDMDL
MODEL 10
REMARK VINA RESULT:      -8.3      2.583      6.092
ROOT
ATOM    129  H26 UNL A   1      14.977  52.658   3.131  1.00  0.00    +0.000 H 
ATOM    130  H27 UNL A   1      18.186  53.045  -0.720  1.00  0.00    +0.000 H 
ATOM    131  H28 UNL A   1      17.717  50.574  -1.194  1.00  0.00    +0.000 H 
ATOM    132  H29 UNL A   1      11.783  50.062   6.897  1.00  0.00    +0.000 H 
ATOM    133  H30 UNL A   1      11.872  52.611   7.120  1.00  0.00    +0.000 H 
ATOM     19  C15 UNL A   1      13.659  53.858   5.286  1.00  0.00    +0.000 C 
ATOM     20  C16 UNL A   1      13.273  52.408   5.347  1.00  0.00    +0.000 C 
ATOM     21  N3  UNL A   1      13.659  51.414   4.588  1.00  0.00    +0.000 N 
ATOM     22  C17 UNL A   1      13.043  50.282   5.104  1.00  0.00    +0.000 C 
ATOM     23  C18 UNL A   1      13.080  49.012   4.636  1.00  0.00    +0.000 C 
ATOM     35  C25 UNL A   1      13.800  48.602   3.459  1.00  0.00    +0.000 C 
ATOM     36  C26 UNL A   1      13.846  47.352   2.866  1.00  0.00    +0.000 C 
ATOM     37  C27 UNL A   1      14.703  47.423   1.762  1.00  0.00    +0.000 C 
ATOM     38  C28 UNL A   1      15.159  48.726   1.644  1.00  0.00    +0.000 C 
ATOM     39  N4  UNL A   1      14.600  49.438   2.693  1.00  0.00    +0.000 N 
ATOM     40  C29 UNL A   1      16.041  49.282   0.651  1.00  0.00    +0.000 C 
ATOM     52  C36 UNL A   1      16.432  50.578   0.595  1.00  0.00    +0.000 C 
ATOM     53  N5  UNL A   1      16.090  51.629   1.435  1.00  0.00    +0.000 N 
ATOM     54  C37 UNL A   1      16.727  52.678   0.976  1.00  0.00    +0.000 C 
ATOM     55  C38 UNL A   1      16.709  54.095   1.481  1.00  0.00    +0.000 C 
ATOM     67  C45 UNL A   1      15.938  54.408   2.540  1.00  0.00    +0.000 C 
ATOM     68  C46 UNL A   1      15.813  55.735   3.134  1.00  0.00    +0.000 C 
ATOM     69  C47 UNL A   1      14.990  55.665   4.193  1.00  0.00    +0.000 C 
ATOM     70  C48 UNL A   1      14.505  54.292   4.332  1.00  0.00    +0.000 C 
ATOM     71  N6  UNL A   1      15.116  53.617   3.304  1.00  0.00    +0.000 N 
ATOM     72  C49 UNL A   1      17.568  52.405  -0.198  1.00  0.00    +0.000 C 
ATOM     73  C50 UNL A   1      17.323  51.119  -0.411  1.00  0.00    +0.000 C 
ATOM     74  C51 UNL A   1      12.294  50.703   6.269  1.00  0.00    +0.000 C 
ATOM     75  C52 UNL A   1      12.350  52.017   6.425  1.00  0.00    +0.000 C 
ATOM    124  H21 UNL A   1      13.335  46.514   3.182  1.00  0.00    +0.000 H 
ATOM    125  H22 UNL A   1      14.953  46.637   1.141  1.00  0.00    +0.000 H 
ATOM    126  H23 UNL A   1      14.748  50.395   2.870  1.00  0.00    +0.000 H 
ATOM    127  H24 UNL A   1      16.282  56.590   2.795  1.00  0.00    +0.000 H 
ATOM    128  H25 UNL A   1      14.742  56.453   4.810  1.00  0.00    +0.000 H 
ENDROOT
BRANCH   19   18
ATOM    134  H31 UNL A   1      14.876  54.615   7.548  1.00  0.00    +0.000 H 
ATOM    135  H32 UNL A   1      14.059  56.092   9.287  1.00  0.00    +0.000 H 
ATOM     76  C53 UNL A   1      13.957  55.073   7.445  1.00  0.00    +0.000 C 
ATOM     77  C54 UNL A   1      13.508  55.953   8.425  1.00  0.00    +0.000 C 
ATOM     15  C11 UNL A   1      12.309  56.648   8.241  1.00  0.00    +0.000 C 
ATOM     16  C12 UNL A   1      11.500  56.371   7.136  1.00  0.00    +0.000 C 
ATOM     17  C13 UNL A   1      11.921  55.440   6.185  1.00  0.00    +0.000 C 
ATOM     18  C14 UNL A   1      13.167  54.806   6.316  1.00  0.00    +0.000 C 
ATOM    122  H19 UNL A   1      10.594  56.853   7.024  1.00  0.00    +0.000 H 
ATOM    123  H20 UNL A   1      11.314  55.217   5.380  1.00  0.00    +0.000 H 
BRANCH   15   13
ATOM     13  C10 UNL A   1      11.868  57.677   9.208  1.00  0.00    +0.000 C 
ATOM     14  O2  UNL A   1      12.053  58.864   8.961  1.00  0.00    +0.000 O 
BRANCH   13   12
ATOM    121  H18 UNL A   1      11.690  57.652  11.204  1.00  0.00    +0.000 H 
ATOM     12  N2  UNL A   1      11.273  57.299  10.386  1.00  0.00    +0.000 N 
BRANCH   12   11
ATOM     11  C9  UNL A   1      10.112  56.448  10.593  1.00  0.00    +0.000 C 
ATOM    119  H16 UNL A   1       9.513  56.868  11.373  1.00  0.00    +0.000 H 
ATOM    120  H17 UNL A   1       9.574  56.400   9.668  1.00  0.00    +0.000 H 
BRANCH   11   10
ATOM     10  C8  UNL A   1      10.497  55.024  10.980  1.00  0.00    +0.000 C 
ATOM    117  H14 UNL A   1       9.698  54.609  11.557  1.00  0.00    +0.000 H 
ATOM    118  H15 UNL A   1      10.674  54.501  10.064  1.00  0.00    +0.000 H 
BRANCH   10    9
ATOM      9  C7  UNL A   1      11.785  54.908  11.797  1.00  0.00    +0.000 C 
ATOM    115  H12 UNL A   1      12.209  55.887  11.887  1.00  0.00    +0.000 H 
ATOM    116  H13 UNL A   1      11.505  54.477  12.734  1.00  0.00    +0.000 H 
BRANCH    9    8
ATOM    113  H10 UNL A   1      12.351  53.161  10.737  1.00  0.00    +0.000 H 
ATOM    114  H11 UNL A   1      13.415  54.587  10.522  1.00  0.00    +0.000 H 
ATOM      8  C6  UNL A   1      12.851  53.984  11.203  1.00  0.00    +0.000 C 
BRANCH    8    7
ATOM    111  H8  UNL A   1      14.239  54.225  12.794  1.00  0.00    +0.000 H 
ATOM      7  C5  UNL A   1      13.865  53.415  12.205  1.00  0.00    +0.000 C 
ATOM    112  H9  UNL A   1      13.339  52.680  12.779  1.00  0.00    +0.000 H 
BRANCH    7    6
ATOM    110  H7  UNL A   1      15.914  52.837  12.206  1.00  0.00    +0.000 H 
ATOM    109  H6  UNL A   1      15.238  53.090  10.600  1.00  0.00    +0.000 H 
ATOM      6  C4  UNL A   1      15.061  52.690  11.576  1.00  0.00    +0.000 C 
BRANCH    6    5
ATOM    108  H5  UNL A   1      15.122  50.698  12.209  1.00  0.00    +0.000 H 
ATOM      5  N1  UNL A   1      14.817  51.266  11.465  1.00  0.00    +0.000 N 
BRANCH    5    3
ATOM      3  C3  UNL A   1      14.197  50.644  10.415  1.00  0.00    +0.000 C 
ATOM      4  O1  UNL A   1      14.570  50.972   9.289  1.00  0.00    +0.000 O 
BRANCH    3    2
ATOM      2  C2  UNL A   1      13.115  49.588  10.706  1.00  0.00    +0.000 C 
ATOM    107  H4  UNL A   1      12.934  49.667  11.757  1.00  0.00    +0.000 H 
BRANCH    2    1
ATOM      1  C1  UNL A   1      13.645  48.208  10.294  1.00  0.00    +0.000 C 
ATOM    106  H3  UNL A   1      12.822  47.558  10.086  1.00  0.00    +0.000 H 
ATOM    105  H2  UNL A   1      14.253  48.306   9.419  1.00  0.00    +0.000 H 
ATOM    104  H1  UNL A   1      14.231  47.799  11.091  1.00  0.00    +0.000 H 
ENDBRANCH    2    1
BRANCH    2   78
ATOM    101  C75 UNL A   1       9.966  51.235   9.216  1.00  0.00    +0.000 C 
ATOM    102  F16 UNL A   1       9.457  52.474   9.115  1.00  0.00    +0.000 F 
ATOM    103  C76 UNL A   1      11.129  51.070   9.964  1.00  0.00    +0.000 C 
ATOM    136  H33 UNL A   1      11.456  47.771   9.614  1.00  0.00    +0.000 H 
ATOM    137  H34 UNL A   1       9.452  48.074   8.299  1.00  0.00    +0.000 H 
ATOM     78  C55 UNL A   1      11.742  49.817  10.069  1.00  0.00    +0.000 C 
ATOM     79  C56 UNL A   1      11.076  48.722   9.483  1.00  0.00    +0.000 C 
ATOM     80  C57 UNL A   1       9.910  48.895   8.725  1.00  0.00    +0.000 C 
ATOM     81  C58 UNL A   1       9.361  50.169   8.539  1.00  0.00    +0.000 C 
ATOM    154  H51 UNL A   1      11.544  51.881  10.447  1.00  0.00    +0.000 H 
BRANCH   81   82
ATOM    100  C74 UNL A   1       8.592  50.846   6.281  1.00  0.00    +0.000 C 
ATOM    138  H35 UNL A   1       6.669  49.852   8.838  1.00  0.00    +0.000 H 
ATOM    139  H36 UNL A   1       4.935  50.243   7.190  1.00  0.00    +0.000 H 
ATOM    140  H37 UNL A   1       5.522  51.000   4.958  1.00  0.00    +0.000 H 
ATOM     82  C59 UNL A   1       8.273  50.405   7.579  1.00  0.00    +0.000 C 
ATOM     83  C60 UNL A   1       6.926  50.182   7.896  1.00  0.00    +0.000 C 
ATOM     84  C61 UNL A   1       5.925  50.402   6.943  1.00  0.00    +0.000 C 
ATOM     85  C62 UNL A   1       6.260  50.837   5.660  1.00  0.00    +0.000 C 
ATOM     86  C63 UNL A   1       7.597  51.048   5.331  1.00  0.00    +0.000 C 
ATOM    153  H50 UNL A   1       9.578  51.023   6.032  1.00  0.00    +0.000 H 
BRANCH   86   87
ATOM     87  O3  UNL A   1       7.846  51.531   4.024  1.00  0.00    +0.000 O 
BRANCH   87   88
ATOM     89  O4  UNL A   1       8.605  50.153   2.293  1.00  0.00    +0.000 O 
ATOM     88  C64 UNL A   1       8.794  51.003   3.147  1.00  0.00    +0.000 C 
BRANCH   88   90
ATOM     90  N7  UNL A   1      10.040  51.552   3.310  1.00  0.00    +0.000 N 
ATOM    141  H38 UNL A   1      10.730  51.009   3.756  1.00  0.00    +0.000 H 
BRANCH   90   91
ATOM     91  C65 UNL A   1      10.404  52.878   2.869  1.00  0.00    +0.000 C 
ATOM    142  H39 UNL A   1      10.465  53.512   3.727  1.00  0.00    +0.000 H 
ATOM    143  H40 UNL A   1       9.651  53.186   2.174  1.00  0.00    +0.000 H 
BRANCH   91   92
ATOM    145  H42 UNL A   1      11.613  53.763   1.437  1.00  0.00    +0.000 H 
ATOM     92  C66 UNL A   1      11.739  52.951   2.124  1.00  0.00    +0.000 C 
ATOM    144  H41 UNL A   1      12.506  53.076   2.861  1.00  0.00    +0.000 H 
BRANCH   92   93
ATOM    146  H43 UNL A   1      11.246  51.241   0.996  1.00  0.00    +0.000 H 
ATOM    147  H44 UNL A   1      12.872  51.257   1.840  1.00  0.00    +0.000 H 
ATOM     93  C67 UNL A   1      12.146  51.766   1.240  1.00  0.00    +0.000 C 
BRANCH   93   94
ATOM     97  C71 UNL A   1      14.348  52.592  -2.395  1.00  0.00    +0.000 C 
ATOM     98  C72 UNL A   1      14.056  53.600  -1.484  1.00  0.00    +0.000 C 
ATOM     99  C73 UNL A   1      13.335  53.302  -0.325  1.00  0.00    +0.000 C 
ATOM    148  H45 UNL A   1      12.855  50.034  -0.829  1.00  0.00    +0.000 H 
ATOM    149  H46 UNL A   1      14.129  50.544  -2.824  1.00  0.00    +0.000 H 
ATOM    150  H47 UNL A   1      14.886  52.806  -3.250  1.00  0.00    +0.000 H 
ATOM    151  H48 UNL A   1      14.370  54.566  -1.662  1.00  0.00    +0.000 H 
ATOM    152  H49 UNL A   1      13.131  54.054   0.351  1.00  0.00    +0.000 H 
ATOM     94  C68 UNL A   1      12.880  51.997  -0.061  1.00  0.00    +0.000 C 
ATOM     95  C69 UNL A   1      13.179  51.000  -0.994  1.00  0.00    +0.000 C 
ATOM     96  C70 UNL A   1      13.911  51.294  -2.150  1.00  0.00    +0.000 C 
ENDBRANCH   93   94
ENDBRANCH   92   93
ENDBRANCH   91   92
ENDBRANCH   90   91
ENDBRANCH   88   90
ENDBRANCH   87   88
ENDBRANCH   86   87
ENDBRANCH   81   82
ENDBRANCH    2   78
ENDBRANCH    3    2
ENDBRANCH    5    3
ENDBRANCH    6    5
ENDBRANCH    7    6
ENDBRANCH    8    7
ENDBRANCH    9    8
ENDBRANCH   10    9
ENDBRANCH   11   10
ENDBRANCH   12   11
ENDBRANCH   13   12
ENDBRANCH   15   13
ENDBRANCH   19   18
BRANCH   23   24
ATOM     33  C24 UNL A   1      12.904  47.313   6.490  1.00  0.00    +0.000 C 
ATOM     34  F5  UNL A   1      14.150  47.625   6.878  1.00  0.00    +0.000 F 
ATOM     24  C19 UNL A   1      12.316  47.971   5.399  1.00  0.00    +0.000 C 
ATOM     25  C20 UNL A   1      11.013  47.602   5.035  1.00  0.00    +0.000 C 
ATOM     26  F1  UNL A   1      10.403  48.211   4.007  1.00  0.00    +0.000 F 
ATOM     27  C21 UNL A   1      10.315  46.633   5.751  1.00  0.00    +0.000 C 
ATOM     28  F2  UNL A   1       9.054  46.331   5.413  1.00  0.00    +0.000 F 
ATOM     29  C22 UNL A   1      10.918  45.991   6.822  1.00  0.00    +0.000 C 
ATOM     30  F3  UNL A   1      10.247  45.055   7.508  1.00  0.00    +0.000 F 
ATOM     31  C23 UNL A   1      12.213  46.324   7.187  1.00  0.00    +0.000 C 
ATOM     32  F4  UNL A   1      12.801  45.698   8.216  1.00  0.00    +0.000 F 
ENDBRANCH   23   24
BRANCH   40   41
ATOM     41  C30 UNL A   1      16.555  48.364  -0.419  1.00  0.00    +0.000 C 
ATOM     42  C31 UNL A   1      15.739  47.944  -1.479  1.00  0.00    +0.000 C 
ATOM     43  F6  UNL A   1      14.452  48.318  -1.528  1.00  0.00    +0.000 F 
ATOM     44  C32 UNL A   1      16.236  47.107  -2.474  1.00  0.00    +0.000 C 
ATOM     45  F7  UNL A   1      15.428  46.684  -3.455  1.00  0.00    +0.000 F 
ATOM     46  C33 UNL A   1      17.561  46.700  -2.445  1.00  0.00    +0.000 C 
ATOM     47  F8  UNL A   1      18.039  45.899  -3.407  1.00  0.00    +0.000 F 
ATOM     48  C34 UNL A   1      18.390  47.117  -1.414  1.00  0.00    +0.000 C 
ATOM     49  F9  UNL A   1      19.674  46.732  -1.390  1.00  0.00    +0.000 F 
ATOM     50  C35 UNL A   1      17.890  47.933  -0.403  1.00  0.00    +0.000 C 
ATOM     51  F10 UNL A   1      18.712  48.311   0.587  1.00  0.00    +0.000 F 
ENDBRANCH   40   41
BRANCH   55   56
ATOM     65  C44 UNL A   1      17.026  55.820  -0.325  1.00  0.00    +0.000 C 
ATOM     66  F15 UNL A   1      15.821  55.512  -0.827  1.00  0.00    +0.000 F 
ATOM     56  C39 UNL A   1      17.507  55.152   0.809  1.00  0.00    +0.000 C 
ATOM     57  C40 UNL A   1      18.774  55.509   1.291  1.00  0.00    +0.000 C 
ATOM     58  F11 UNL A   1      19.265  54.910   2.386  1.00  0.00    +0.000 F 
ATOM     59  C41 UNL A   1      19.524  56.505   0.673  1.00  0.00    +0.000 C 
ATOM     60  F12 UNL A   1      20.716  56.854   1.177  1.00  0.00    +0.000 F 
ATOM     61  C42 UNL A   1      19.034  57.147  -0.454  1.00  0.00    +0.000 C 
ATOM     62  F13 UNL A   1      19.757  58.103  -1.051  1.00  0.00    +0.000 F 
ATOM     63  C43 UNL A   1      17.788  56.801  -0.957  1.00  0.00    +0.000 C 
ATOM     64  F14 UNL A   1      17.315  57.410  -2.053  1.00  0.00    +0.000 F 
ENDBRANCH   55   56
TORSDOF 25
ENDMDL
