MODEL 1
REMARK VINA RESULT:     -11.1      0.000      0.000
ROOT
ATOM    129  H39 UNL A   1      41.104  28.734  26.204  1.00  0.00    +0.000 H 
ATOM     29  C23 UNL A   1      40.640  28.015  28.939  1.00  0.00    +0.000 C 
ATOM     30  C24 UNL A   1      41.760  28.802  28.375  1.00  0.00    +0.000 C 
ATOM     31  N4  UNL A   1      42.804  29.238  28.996  1.00  0.00    +0.000 N 
ATOM     32  C25 UNL A   1      43.547  29.935  28.048  1.00  0.00    +0.000 C 
ATOM     33  C26 UNL A   1      44.434  30.897  28.421  1.00  0.00    +0.000 C 
ATOM     45  C33 UNL A   1      44.734  30.805  29.828  1.00  0.00    +0.000 C 
ATOM     46  C34 UNL A   1      45.374  29.879  30.627  1.00  0.00    +0.000 C 
ATOM     47  C35 UNL A   1      44.637  29.869  31.849  1.00  0.00    +0.000 C 
ATOM     48  C36 UNL A   1      43.625  30.828  31.758  1.00  0.00    +0.000 C 
ATOM     49  N5  UNL A   1      43.997  31.590  30.680  1.00  0.00    +0.000 N 
ATOM     50  C37 UNL A   1      42.382  31.005  32.477  1.00  0.00    +0.000 C 
ATOM     62  C44 UNL A   1      41.341  31.789  32.066  1.00  0.00    +0.000 C 
ATOM     63  N6  UNL A   1      40.057  31.580  32.552  1.00  0.00    +0.000 N 
ATOM     64  C45 UNL A   1      39.266  32.020  31.611  1.00  0.00    +0.000 C 
ATOM     65  C46 UNL A   1      37.992  31.356  31.233  1.00  0.00    +0.000 C 
ATOM     77  C53 UNL A   1      38.334  30.147  30.724  1.00  0.00    +0.000 C 
ATOM     78  C54 UNL A   1      37.549  28.947  30.560  1.00  0.00    +0.000 C 
ATOM     79  C55 UNL A   1      38.355  27.988  30.063  1.00  0.00    +0.000 C 
ATOM     80  C56 UNL A   1      39.656  28.563  29.688  1.00  0.00    +0.000 C 
ATOM     81  N7  UNL A   1      39.605  29.837  30.199  1.00  0.00    +0.000 N 
ATOM     82  C57 UNL A   1      39.883  32.899  30.633  1.00  0.00    +0.000 C 
ATOM     83  C58 UNL A   1      41.168  32.669  30.914  1.00  0.00    +0.000 C 
ATOM     84  C59 UNL A   1      42.978  29.608  26.766  1.00  0.00    +0.000 C 
ATOM     85  C60 UNL A   1      41.800  28.998  26.918  1.00  0.00    +0.000 C 
ATOM    120  H30 UNL A   1      46.206  29.317  30.392  1.00  0.00    +0.000 H 
ATOM    121  H31 UNL A   1      44.818  29.257  32.661  1.00  0.00    +0.000 H 
ATOM    122  H32 UNL A   1      43.774  32.539  30.540  1.00  0.00    +0.000 H 
ATOM    123  H33 UNL A   1      36.548  28.842  30.784  1.00  0.00    +0.000 H 
ATOM    124  H34 UNL A   1      38.097  26.993  29.959  1.00  0.00    +0.000 H 
ATOM    125  H35 UNL A   1      40.368  30.459  30.199  1.00  0.00    +0.000 H 
ATOM    126  H36 UNL A   1      39.455  33.518  29.927  1.00  0.00    +0.000 H 
ATOM    127  H37 UNL A   1      41.952  33.069  30.375  1.00  0.00    +0.000 H 
ATOM    128  H38 UNL A   1      43.419  29.816  25.857  1.00  0.00    +0.000 H 
ENDROOT
BRANCH   29   28
ATOM    130  H40 UNL A   1      38.767  27.093  27.399  1.00  0.00    +0.000 H 
ATOM    131  H41 UNL A   1      38.160  24.743  27.280  1.00  0.00    +0.000 H 
ATOM     28  C22 UNL A   1      40.546  26.654  28.443  1.00  0.00    +0.000 C 
ATOM     86  C61 UNL A   1      39.398  26.349  27.736  1.00  0.00    +0.000 C 
ATOM     87  C62 UNL A   1      39.124  25.038  27.499  1.00  0.00    +0.000 C 
ATOM    118  H28 UNL A   1      42.119  23.706  28.213  1.00  0.00    +0.000 H 
ATOM     25  C19 UNL A   1      40.143  24.098  27.552  1.00  0.00    +0.000 C 
ATOM     26  C20 UNL A   1      41.367  24.410  28.149  1.00  0.00    +0.000 C 
ATOM     27  C21 UNL A   1      41.548  25.696  28.655  1.00  0.00    +0.000 C 
ATOM    119  H29 UNL A   1      42.404  25.938  29.178  1.00  0.00    +0.000 H 
BRANCH   25   23
ATOM     23  C18 UNL A   1      39.874  22.785  26.936  1.00  0.00    +0.000 C 
ATOM     24  O3  UNL A   1      40.497  21.802  27.280  1.00  0.00    +0.000 O 
BRANCH   23   22
ATOM    117  H27 UNL A   1      38.691  23.548  25.484  1.00  0.00    +0.000 H 
ATOM     22  N3  UNL A   1      38.886  22.711  25.964  1.00  0.00    +0.000 N 
BRANCH   22   21
ATOM    115  H25 UNL A   1      38.648  20.991  24.830  1.00  0.00    +0.000 H 
ATOM    116  H26 UNL A   1      37.908  20.960  26.438  1.00  0.00    +0.000 H 
ATOM     21  C17 UNL A   1      38.096  21.543  25.561  1.00  0.00    +0.000 C 
BRANCH   21   20
ATOM    113  H23 UNL A   1      36.597  21.346  24.080  1.00  0.00    +0.000 H 
ATOM    114  H24 UNL A   1      36.009  21.728  25.710  1.00  0.00    +0.000 H 
ATOM     20  C16 UNL A   1      36.752  21.925  24.967  1.00  0.00    +0.000 C 
BRANCH   20   19
ATOM     19  C15 UNL A   1      36.651  23.412  24.602  1.00  0.00    +0.000 C 
ATOM    111  H21 UNL A   1      37.606  23.860  24.785  1.00  0.00    +0.000 H 
ATOM    112  H22 UNL A   1      36.341  23.434  23.577  1.00  0.00    +0.000 H 
BRANCH   19   18
ATOM     18  C14 UNL A   1      35.596  24.231  25.365  1.00  0.00    +0.000 C 
ATOM    109  H19 UNL A   1      35.027  23.556  25.970  1.00  0.00    +0.000 H 
ATOM    110  H20 UNL A   1      36.138  24.960  25.932  1.00  0.00    +0.000 H 
BRANCH   18   17
ATOM     17  C13 UNL A   1      34.620  25.016  24.484  1.00  0.00    +0.000 C 
ATOM    107  H17 UNL A   1      35.104  25.239  23.557  1.00  0.00    +0.000 H 
ATOM    108  H18 UNL A   1      33.753  24.403  24.348  1.00  0.00    +0.000 H 
BRANCH   17   16
ATOM    105  H15 UNL A   1      33.682  26.117  26.055  1.00  0.00    +0.000 H 
ATOM    106  H16 UNL A   1      35.001  26.961  25.264  1.00  0.00    +0.000 H 
ATOM     16  C12 UNL A   1      34.153  26.327  25.118  1.00  0.00    +0.000 C 
BRANCH   16   15
ATOM     15  N2  UNL A   1      33.211  26.998  24.253  1.00  0.00    +0.000 N 
ATOM    104  H14 UNL A   1      33.112  26.589  23.364  1.00  0.00    +0.000 H 
BRANCH   15   13
ATOM     13  C11 UNL A   1      32.442  28.097  24.457  1.00  0.00    +0.000 C 
ATOM     14  O2  UNL A   1      33.016  29.187  24.506  1.00  0.00    +0.000 O 
BRANCH   13   12
ATOM     12  C10 UNL A   1      30.952  28.002  24.730  1.00  0.00    +0.000 C 
ATOM    102  H12 UNL A   1      30.835  28.028  25.794  1.00  0.00    +0.000 H 
ATOM    103  H13 UNL A   1      30.553  28.816  24.162  1.00  0.00    +0.000 H 
BRANCH   12   11
ATOM     11  C9  UNL A   1      30.138  26.803  24.229  1.00  0.00    +0.000 C 
ATOM    100  H10 UNL A   1      29.133  27.151  24.113  1.00  0.00    +0.000 H 
ATOM    101  H11 UNL A   1      30.690  26.506  23.362  1.00  0.00    +0.000 H 
BRANCH   11   10
ATOM     10  C8  UNL A   1      30.049  25.486  25.020  1.00  0.00    +0.000 C 
ATOM     99  H9  UNL A   1      29.157  25.040  24.632  1.00  0.00    +0.000 H 
ATOM     98  H8  UNL A   1      30.076  25.752  26.055  1.00  0.00    +0.000 H 
BRANCH   10    9
ATOM      2  C2  UNL A   1      32.879  20.090  24.525  1.00  0.00    +0.000 C 
ATOM      3  C3  UNL A   1      33.325  20.411  25.815  1.00  0.00    +0.000 C 
ATOM      4  C4  UNL A   1      33.037  21.672  26.366  1.00  0.00    +0.000 C 
ATOM      6  C6  UNL A   1      32.262  22.532  25.597  1.00  0.00    +0.000 C 
ATOM      7  C7  UNL A   1      31.653  23.835  25.950  1.00  0.00    +0.000 C 
ATOM      8  O1  UNL A   1      31.620  24.253  27.099  1.00  0.00    +0.000 O 
ATOM      9  N1  UNL A   1      31.040  24.428  24.838  1.00  0.00    +0.000 N 
ATOM     88  S1  UNL A   1      31.151  23.469  23.424  1.00  0.00    +0.000 S 
ATOM     89  C63 UNL A   1      31.930  22.157  24.311  1.00  0.00    +0.000 C 
ATOM     90  N8  UNL A   1      32.193  20.963  23.752  1.00  0.00    +0.000 N 
ATOM     94  H4  UNL A   1      33.866  19.721  26.360  1.00  0.00    +0.000 H 
BRANCH    2    1
ATOM      1  C1  UNL A   1      33.115  18.729  23.940  1.00  0.00    +0.000 C 
ATOM     91  H1  UNL A   1      33.775  18.178  24.577  1.00  0.00    +0.000 H 
ATOM     92  H2  UNL A   1      33.555  18.829  22.971  1.00  0.00    +0.000 H 
ATOM     93  H3  UNL A   1      32.183  18.210  23.857  1.00  0.00    +0.000 H 
ENDBRANCH    2    1
BRANCH    4    5
ATOM     97  H7  UNL A   1      34.287  21.334  28.031  1.00  0.00    +0.000 H 
ATOM      5  C5  UNL A   1      33.578  22.066  27.704  1.00  0.00    +0.000 C 
ATOM     95  H5  UNL A   1      32.776  22.125  28.410  1.00  0.00    +0.000 H 
ATOM     96  H6  UNL A   1      34.058  23.020  27.628  1.00  0.00    +0.000 H 
ENDBRANCH    4    5
ENDBRANCH   10    9
ENDBRANCH   11   10
ENDBRANCH   12   11
ENDBRANCH   13   12
ENDBRANCH   15   13
ENDBRANCH   16   15
ENDBRANCH   17   16
ENDBRANCH   18   17
ENDBRANCH   19   18
ENDBRANCH   20   19
ENDBRANCH   21   20
ENDBRANCH   22   21
ENDBRANCH   23   22
ENDBRANCH   25   23
ENDBRANCH   29   28
BRANCH   33   34
ATOM     34  C27 UNL A   1      44.770  32.119  27.604  1.00  0.00    +0.000 C 
ATOM     35  C28 UNL A   1      46.021  32.196  26.959  1.00  0.00    +0.000 C 
ATOM     36  F1  UNL A   1      46.817  31.120  26.880  1.00  0.00    +0.000 F 
ATOM     37  C29 UNL A   1      46.518  33.400  26.450  1.00  0.00    +0.000 C 
ATOM     38  F2  UNL A   1      47.757  33.448  25.945  1.00  0.00    +0.000 F 
ATOM     39  C30 UNL A   1      45.762  34.557  26.517  1.00  0.00    +0.000 C 
ATOM     40  F3  UNL A   1      46.255  35.720  26.075  1.00  0.00    +0.000 F 
ATOM     41  C31 UNL A   1      44.510  34.511  27.090  1.00  0.00    +0.000 C 
ATOM     42  F4  UNL A   1      43.770  35.624  27.182  1.00  0.00    +0.000 F 
ATOM     43  C32 UNL A   1      44.036  33.324  27.648  1.00  0.00    +0.000 C 
ATOM     44  F5  UNL A   1      42.884  33.433  28.320  1.00  0.00    +0.000 F 
ENDBRANCH   33   34
BRANCH   50   51
ATOM     51  C38 UNL A   1      42.141  30.090  33.654  1.00  0.00    +0.000 C 
ATOM     52  C39 UNL A   1      41.714  28.754  33.541  1.00  0.00    +0.000 C 
ATOM     53  F6  UNL A   1      41.443  28.221  32.344  1.00  0.00    +0.000 F 
ATOM     54  C40 UNL A   1      41.610  27.925  34.659  1.00  0.00    +0.000 C 
ATOM     55  F7  UNL A   1      41.190  26.659  34.521  1.00  0.00    +0.000 F 
ATOM     56  C41 UNL A   1      41.974  28.398  35.908  1.00  0.00    +0.000 C 
ATOM     57  F8  UNL A   1      41.916  27.591  36.977  1.00  0.00    +0.000 F 
ATOM     58  C42 UNL A   1      42.422  29.701  36.043  1.00  0.00    +0.000 C 
ATOM     59  F9  UNL A   1      42.818  30.151  37.242  1.00  0.00    +0.000 F 
ATOM     60  C43 UNL A   1      42.491  30.540  34.933  1.00  0.00    +0.000 C 
ATOM     61  F10 UNL A   1      42.952  31.790  35.100  1.00  0.00    +0.000 F 
ENDBRANCH   50   51
BRANCH   65   66
ATOM     66  C47 UNL A   1      36.734  32.110  31.024  1.00  0.00    +0.000 C 
ATOM     67  C48 UNL A   1      35.896  32.412  32.110  1.00  0.00    +0.000 C 
ATOM     68  F11 UNL A   1      36.084  31.809  33.293  1.00  0.00    +0.000 F 
ATOM     69  C49 UNL A   1      34.909  33.398  32.020  1.00  0.00    +0.000 C 
ATOM     70  F12 UNL A   1      34.177  33.711  33.099  1.00  0.00    +0.000 F 
ATOM     71  C50 UNL A   1      34.726  34.101  30.840  1.00  0.00    +0.000 C 
ATOM     72  F13 UNL A   1      33.832  35.097  30.777  1.00  0.00    +0.000 F 
ATOM     73  C51 UNL A   1      35.507  33.797  29.740  1.00  0.00    +0.000 C 
ATOM     74  F14 UNL A   1      35.364  34.496  28.604  1.00  0.00    +0.000 F 
ATOM     75  C52 UNL A   1      36.495  32.815  29.829  1.00  0.00    +0.000 C 
ATOM     76  F15 UNL A   1      37.280  32.636  28.757  1.00  0.00    +0.000 F 
ENDBRANCH   65   66
TORSDOF 20
ENDMDL
MODEL 2
REMARK VINA RESULT:     -11.0      1.236      3.080
ROOT
ATOM    129  H39 UNL A   1      41.458  28.837  26.061  1.00  0.00    +0.000 H 
ATOM     29  C23 UNL A   1      40.948  28.063  28.773  1.00  0.00    +0.000 C 
ATOM     30  C24 UNL A   1      42.017  28.949  28.258  1.00  0.00    +0.000 C 
ATOM     31  N4  UNL A   1      42.992  29.473  28.922  1.00  0.00    +0.000 N 
ATOM     32  C25 UNL A   1      43.708  30.238  28.006  1.00  0.00    +0.000 C 
ATOM     33  C26 UNL A   1      44.490  31.272  28.418  1.00  0.00    +0.000 C 
ATOM     45  C33 UNL A   1      44.740  31.199  29.836  1.00  0.00    +0.000 C 
ATOM     46  C34 UNL A   1      45.426  30.329  30.658  1.00  0.00    +0.000 C 
ATOM     47  C35 UNL A   1      44.644  30.246  31.849  1.00  0.00    +0.000 C 
ATOM     48  C36 UNL A   1      43.556  31.112  31.718  1.00  0.00    +0.000 C 
ATOM     49  N5  UNL A   1      43.903  31.911  30.659  1.00  0.00    +0.000 N 
ATOM     50  C37 UNL A   1      42.274  31.174  32.387  1.00  0.00    +0.000 C 
ATOM     62  C44 UNL A   1      41.185  31.866  31.935  1.00  0.00    +0.000 C 
ATOM     63  N6  UNL A   1      39.906  31.541  32.367  1.00  0.00    +0.000 N 
ATOM     64  C45 UNL A   1      39.118  31.916  31.396  1.00  0.00    +0.000 C 
ATOM     65  C46 UNL A   1      37.925  31.144  30.964  1.00  0.00    +0.000 C 
ATOM     77  C53 UNL A   1      38.393  29.973  30.467  1.00  0.00    +0.000 C 
ATOM     78  C54 UNL A   1      37.724  28.709  30.268  1.00  0.00    +0.000 C 
ATOM     79  C55 UNL A   1      38.631  27.828  29.802  1.00  0.00    +0.000 C 
ATOM     80  C56 UNL A   1      39.890  28.518  29.483  1.00  0.00    +0.000 C 
ATOM     81  N7  UNL A   1      39.706  29.779  29.994  1.00  0.00    +0.000 N 
ATOM     82  C57 UNL A   1      39.694  32.851  30.446  1.00  0.00    +0.000 C 
ATOM     83  C58 UNL A   1      40.982  32.734  30.779  1.00  0.00    +0.000 C 
ATOM     84  C59 UNL A   1      43.222  29.869  26.701  1.00  0.00    +0.000 C 
ATOM     85  C60 UNL A   1      42.098  29.157  26.804  1.00  0.00    +0.000 C 
ATOM    120  H30 UNL A   1      46.314  29.843  30.456  1.00  0.00    +0.000 H 
ATOM    121  H31 UNL A   1      44.846  29.648  32.667  1.00  0.00    +0.000 H 
ATOM    122  H32 UNL A   1      43.602  32.837  30.512  1.00  0.00    +0.000 H 
ATOM    123  H33 UNL A   1      36.727  28.515  30.451  1.00  0.00    +0.000 H 
ATOM    124  H34 UNL A   1      38.466  26.815  29.686  1.00  0.00    +0.000 H 
ATOM    125  H35 UNL A   1      40.410  30.466  30.026  1.00  0.00    +0.000 H 
ATOM    126  H36 UNL A   1      39.242  33.434  29.724  1.00  0.00    +0.000 H 
ATOM    127  H37 UNL A   1      41.749  33.204  30.274  1.00  0.00    +0.000 H 
ATOM    128  H38 UNL A   1      43.680  30.121  25.812  1.00  0.00    +0.000 H 
ENDROOT
BRANCH   29   28
ATOM    130  H40 UNL A   1      39.455  27.096  26.886  1.00  0.00    +0.000 H 
ATOM    131  H41 UNL A   1      38.950  24.731  26.649  1.00  0.00    +0.000 H 
ATOM     28  C22 UNL A   1      40.995  26.703  28.270  1.00  0.00    +0.000 C 
ATOM     86  C61 UNL A   1      40.024  26.368  27.345  1.00  0.00    +0.000 C 
ATOM     87  C62 UNL A   1      39.841  25.051  27.059  1.00  0.00    +0.000 C 
ATOM    118  H28 UNL A   1      42.664  23.801  28.370  1.00  0.00    +0.000 H 
ATOM     25  C19 UNL A   1      40.853  24.140  27.320  1.00  0.00    +0.000 C 
ATOM     26  C20 UNL A   1      41.922  24.483  28.154  1.00  0.00    +0.000 C 
ATOM     27  C21 UNL A   1      41.960  25.771  28.684  1.00  0.00    +0.000 C 
ATOM    119  H29 UNL A   1      42.684  26.035  29.369  1.00  0.00    +0.000 H 
BRANCH   25   23
ATOM     23  C18 UNL A   1      40.753  22.822  26.665  1.00  0.00    +0.000 C 
ATOM     24  O3  UNL A   1      41.735  22.292  26.188  1.00  0.00    +0.000 O 
BRANCH   23   22
ATOM    117  H27 UNL A   1      38.883  22.452  27.342  1.00  0.00    +0.000 H 
ATOM     22  N3  UNL A   1      39.507  22.210  26.620  1.00  0.00    +0.000 N 
BRANCH   22   21
ATOM    115  H25 UNL A   1      39.582  21.343  24.738  1.00  0.00    +0.000 H 
ATOM    116  H26 UNL A   1      39.089  20.272  26.059  1.00  0.00    +0.000 H 
ATOM     21  C17 UNL A   1      39.004  21.249  25.634  1.00  0.00    +0.000 C 
BRANCH   21   20
ATOM    113  H23 UNL A   1      37.267  20.797  24.511  1.00  0.00    +0.000 H 
ATOM    114  H24 UNL A   1      36.978  21.310  26.186  1.00  0.00    +0.000 H 
ATOM     20  C16 UNL A   1      37.542  21.476  25.292  1.00  0.00    +0.000 C 
BRANCH   20   19
ATOM     19  C15 UNL A   1      37.244  22.907  24.823  1.00  0.00    +0.000 C 
ATOM    111  H21 UNL A   1      38.173  23.363  24.553  1.00  0.00    +0.000 H 
ATOM    112  H22 UNL A   1      36.552  22.802  24.012  1.00  0.00    +0.000 H 
BRANCH   19   18
ATOM     18  C14 UNL A   1      36.547  23.827  25.839  1.00  0.00    +0.000 C 
ATOM    109  H19 UNL A   1      36.507  23.314  26.778  1.00  0.00    +0.000 H 
ATOM    110  H20 UNL A   1      37.122  24.728  25.869  1.00  0.00    +0.000 H 
BRANCH   18   17
ATOM     17  C13 UNL A   1      35.121  24.243  25.468  1.00  0.00    +0.000 C 
ATOM    107  H17 UNL A   1      35.047  25.308  25.546  1.00  0.00    +0.000 H 
ATOM    108  H18 UNL A   1      34.940  23.900  24.470  1.00  0.00    +0.000 H 
BRANCH   17   16
ATOM    105  H15 UNL A   1      34.286  23.823  27.388  1.00  0.00    +0.000 H 
ATOM    106  H16 UNL A   1      33.100  24.027  26.110  1.00  0.00    +0.000 H 
ATOM     16  C12 UNL A   1      34.054  23.614  26.364  1.00  0.00    +0.000 C 
BRANCH   16   15
ATOM     15  N2  UNL A   1      34.010  22.184  26.171  1.00  0.00    +0.000 N 
ATOM    104  H14 UNL A   1      34.485  21.665  26.859  1.00  0.00    +0.000 H 
BRANCH   15   13
ATOM     13  C11 UNL A   1      33.427  21.433  25.203  1.00  0.00    +0.000 C 
ATOM     14  O2  UNL A   1      34.130  20.586  24.646  1.00  0.00    +0.000 O 
BRANCH   13   12
ATOM     12  C10 UNL A   1      32.008  21.685  24.727  1.00  0.00    +0.000 C 
ATOM    102  H12 UNL A   1      31.593  20.728  24.485  1.00  0.00    +0.000 H 
ATOM    103  H13 UNL A   1      31.576  22.227  25.543  1.00  0.00    +0.000 H 
BRANCH   12   11
ATOM     11  C9  UNL A   1      31.735  22.598  23.526  1.00  0.00    +0.000 C 
ATOM    100  H10 UNL A   1      32.691  22.842  23.112  1.00  0.00    +0.000 H 
ATOM    101  H11 UNL A   1      31.051  22.010  22.950  1.00  0.00    +0.000 H 
BRANCH   11   10
ATOM     10  C8  UNL A   1      30.974  23.928  23.665  1.00  0.00    +0.000 C 
ATOM     99  H9  UNL A   1      30.176  23.672  24.330  1.00  0.00    +0.000 H 
ATOM     98  H8  UNL A   1      30.728  24.242  22.673  1.00  0.00    +0.000 H 
BRANCH   10    9
ATOM      2  C2  UNL A   1      32.147  29.501  25.886  1.00  0.00    +0.000 C 
ATOM      3  C3  UNL A   1      33.015  29.558  24.786  1.00  0.00    +0.000 C 
ATOM      4  C4  UNL A   1      33.213  28.419  23.986  1.00  0.00    +0.000 C 
ATOM      6  C6  UNL A   1      32.478  27.286  24.313  1.00  0.00    +0.000 C 
ATOM      7  C7  UNL A   1      32.332  26.005  23.585  1.00  0.00    +0.000 C 
ATOM      8  O1  UNL A   1      32.738  25.852  22.440  1.00  0.00    +0.000 O 
ATOM      9  N1  UNL A   1      31.583  25.081  24.325  1.00  0.00    +0.000 N 
ATOM     88  S1  UNL A   1      31.041  25.708  25.823  1.00  0.00    +0.000 S 
ATOM     89  C63 UNL A   1      31.705  27.302  25.456  1.00  0.00    +0.000 C 
ATOM     90  N8  UNL A   1      31.498  28.370  26.244  1.00  0.00    +0.000 N 
ATOM     94  H4  UNL A   1      33.508  30.438  24.564  1.00  0.00    +0.000 H 
BRANCH    2    1
ATOM      1  C1  UNL A   1      31.867  30.719  26.715  1.00  0.00    +0.000 C 
ATOM     91  H1  UNL A   1      32.588  31.477  26.489  1.00  0.00    +0.000 H 
ATOM     92  H2  UNL A   1      31.928  30.467  27.753  1.00  0.00    +0.000 H 
ATOM     93  H3  UNL A   1      30.885  31.083  26.494  1.00  0.00    +0.000 H 
ENDBRANCH    2    1
BRANCH    4    5
ATOM     97  H7  UNL A   1      34.822  27.566  22.921  1.00  0.00    +0.000 H 
ATOM      5  C5  UNL A   1      34.199  28.434  22.861  1.00  0.00    +0.000 C 
ATOM     95  H5  UNL A   1      34.806  29.313  22.931  1.00  0.00    +0.000 H 
ATOM     96  H6  UNL A   1      33.676  28.435  21.927  1.00  0.00    +0.000 H 
ENDBRANCH    4    5
ENDBRANCH   10    9
ENDBRANCH   11   10
ENDBRANCH   12   11
ENDBRANCH   13   12
ENDBRANCH   15   13
ENDBRANCH   16   15
ENDBRANCH   17   16
ENDBRANCH   18   17
ENDBRANCH   19   18
ENDBRANCH   20   19
ENDBRANCH   21   20
ENDBRANCH   22   21
ENDBRANCH   23   22
ENDBRANCH   25   23
ENDBRANCH   29   28
BRANCH   33   34
ATOM     34  C27 UNL A   1      44.750  32.525  27.618  1.00  0.00    +0.000 C 
ATOM     35  C28 UNL A   1      45.951  32.642  26.890  1.00  0.00    +0.000 C 
ATOM     36  F1  UNL A   1      46.755  31.583  26.721  1.00  0.00    +0.000 F 
ATOM     37  C29 UNL A   1      46.393  33.869  26.385  1.00  0.00    +0.000 C 
ATOM     38  F2  UNL A   1      47.593  33.953  25.797  1.00  0.00    +0.000 F 
ATOM     39  C30 UNL A   1      45.626  35.010  26.541  1.00  0.00    +0.000 C 
ATOM     40  F3  UNL A   1      46.070  36.194  26.102  1.00  0.00    +0.000 F 
ATOM     41  C31 UNL A   1      44.419  34.926  27.199  1.00  0.00    +0.000 C 
ATOM     42  F4  UNL A   1      43.670  36.023  27.378  1.00  0.00    +0.000 F 
ATOM     43  C32 UNL A   1      44.003  33.714  27.751  1.00  0.00    +0.000 C 
ATOM     44  F5  UNL A   1      42.900  33.784  28.506  1.00  0.00    +0.000 F 
ENDBRANCH   33   34
BRANCH   50   51
ATOM     51  C38 UNL A   1      42.067  30.235  33.550  1.00  0.00    +0.000 C 
ATOM     52  C39 UNL A   1      41.735  28.874  33.417  1.00  0.00    +0.000 C 
ATOM     53  F6  UNL A   1      41.531  28.334  32.210  1.00  0.00    +0.000 F 
ATOM     54  C40 UNL A   1      41.661  28.030  34.526  1.00  0.00    +0.000 C 
ATOM     55  F7  UNL A   1      41.333  26.739  34.369  1.00  0.00    +0.000 F 
ATOM     56  C41 UNL A   1      41.961  28.515  35.788  1.00  0.00    +0.000 C 
ATOM     57  F8  UNL A   1      41.932  27.697  36.849  1.00  0.00    +0.000 F 
ATOM     58  C42 UNL A   1      42.315  29.845  35.943  1.00  0.00    +0.000 C 
ATOM     59  F9  UNL A   1      42.650  30.310  37.155  1.00  0.00    +0.000 F 
ATOM     60  C43 UNL A   1      42.354  30.697  34.841  1.00  0.00    +0.000 C 
ATOM     61  F10 UNL A   1      42.724  31.974  35.028  1.00  0.00    +0.000 F 
ENDBRANCH   50   51
BRANCH   65   66
ATOM     66  C47 UNL A   1      36.614  31.785  30.706  1.00  0.00    +0.000 C 
ATOM     67  C48 UNL A   1      35.782  32.159  31.774  1.00  0.00    +0.000 C 
ATOM     68  F11 UNL A   1      36.036  31.715  33.013  1.00  0.00    +0.000 F 
ATOM     69  C49 UNL A   1      34.728  33.062  31.597  1.00  0.00    +0.000 C 
ATOM     70  F12 UNL A   1      34.000  33.454  32.653  1.00  0.00    +0.000 F 
ATOM     71  C50 UNL A   1      34.472  33.607  30.350  1.00  0.00    +0.000 C 
ATOM     72  F13 UNL A   1      33.512  34.528  30.196  1.00  0.00    +0.000 F 
ATOM     73  C51 UNL A   1      35.248  33.225  29.270  1.00  0.00    +0.000 C 
ATOM     74  F14 UNL A   1      35.034  33.773  28.065  1.00  0.00    +0.000 F 
ATOM     75  C52 UNL A   1      36.302  32.326  29.444  1.00  0.00    +0.000 C 
ATOM     76  F15 UNL A   1      37.073  32.072  28.378  1.00  0.00    +0.000 F 
ENDBRANCH   65   66
TORSDOF 20
ENDMDL
MODEL 3
REMARK VINA RESULT:     -11.0      3.095      8.815
ROOT
ATOM    129  H39 UNL A   1      38.650  27.532  30.919  1.00  0.00    +0.000 H 
ATOM     29  C23 UNL A   1      40.145  29.143  29.079  1.00  0.00    +0.000 C 
ATOM     30  C24 UNL A   1      40.444  28.858  30.501  1.00  0.00    +0.000 C 
ATOM     31  N4  UNL A   1      41.389  29.361  31.221  1.00  0.00    +0.000 N 
ATOM     32  C25 UNL A   1      41.270  28.768  32.474  1.00  0.00    +0.000 C 
ATOM     33  C26 UNL A   1      42.334  28.694  33.319  1.00  0.00    +0.000 C 
ATOM     45  C33 UNL A   1      43.385  29.589  32.905  1.00  0.00    +0.000 C 
ATOM     46  C34 UNL A   1      43.520  30.960  32.827  1.00  0.00    +0.000 C 
ATOM     47  C35 UNL A   1      44.281  31.194  31.643  1.00  0.00    +0.000 C 
ATOM     48  C36 UNL A   1      44.623  29.956  31.093  1.00  0.00    +0.000 C 
ATOM     49  N5  UNL A   1      44.376  29.070  32.109  1.00  0.00    +0.000 N 
ATOM     50  C37 UNL A   1      45.029  29.561  29.762  1.00  0.00    +0.000 C 
ATOM     62  C44 UNL A   1      45.016  28.280  29.284  1.00  0.00    +0.000 C 
ATOM     63  N6  UNL A   1      44.994  28.030  27.919  1.00  0.00    +0.000 N 
ATOM     64  C45 UNL A   1      44.416  26.865  27.800  1.00  0.00    +0.000 C 
ATOM     65  C46 UNL A   1      43.461  26.530  26.712  1.00  0.00    +0.000 C 
ATOM     77  C53 UNL A   1      42.380  27.325  26.901  1.00  0.00    +0.000 C 
ATOM     78  C54 UNL A   1      41.341  27.723  25.981  1.00  0.00    +0.000 C 
ATOM     79  C55 UNL A   1      40.519  28.574  26.626  1.00  0.00    +0.000 C 
ATOM     80  C56 UNL A   1      40.860  28.622  28.055  1.00  0.00    +0.000 C 
ATOM     81  N7  UNL A   1      42.041  27.926  28.130  1.00  0.00    +0.000 N 
ATOM     82  C57 UNL A   1      44.364  26.064  29.010  1.00  0.00    +0.000 C 
ATOM     83  C58 UNL A   1      44.680  27.002  29.906  1.00  0.00    +0.000 C 
ATOM     84  C59 UNL A   1      39.993  28.102  32.488  1.00  0.00    +0.000 C 
ATOM     85  C60 UNL A   1      39.488  28.032  31.254  1.00  0.00    +0.000 C 
ATOM    120  H30 UNL A   1      43.150  31.665  33.484  1.00  0.00    +0.000 H 
ATOM    121  H31 UNL A   1      44.535  32.118  31.258  1.00  0.00    +0.000 H 
ATOM    122  H32 UNL A   1      44.830  28.206  32.246  1.00  0.00    +0.000 H 
ATOM    123  H33 UNL A   1      41.245  27.410  25.003  1.00  0.00    +0.000 H 
ATOM    124  H34 UNL A   1      39.759  29.114  26.181  1.00  0.00    +0.000 H 
ATOM    125  H35 UNL A   1      42.585  27.854  28.947  1.00  0.00    +0.000 H 
ATOM    126  H36 UNL A   1      44.146  25.064  29.141  1.00  0.00    +0.000 H 
ATOM    127  H37 UNL A   1      44.686  26.842  30.925  1.00  0.00    +0.000 H 
ATOM    128  H38 UNL A   1      39.533  27.730  33.333  1.00  0.00    +0.000 H 
ENDROOT
BRANCH   29   28
ATOM    130  H40 UNL A   1      37.952  28.062  28.214  1.00  0.00    +0.000 H 
ATOM    131  H41 UNL A   1      36.203  29.301  27.067  1.00  0.00    +0.000 H 
ATOM     28  C22 UNL A   1      38.891  29.838  28.852  1.00  0.00    +0.000 C 
ATOM     86  C61 UNL A   1      37.884  29.090  28.271  1.00  0.00    +0.000 C 
ATOM     87  C62 UNL A   1      36.803  29.750  27.777  1.00  0.00    +0.000 C 
ATOM    118  H28 UNL A   1      37.252  32.732  29.246  1.00  0.00    +0.000 H 
ATOM     25  C19 UNL A   1      36.507  31.028  28.228  1.00  0.00    +0.000 C 
ATOM     26  C20 UNL A   1      37.459  31.772  28.930  1.00  0.00    +0.000 C 
ATOM     27  C21 UNL A   1      38.694  31.185  29.195  1.00  0.00    +0.000 C 
ATOM    119  H29 UNL A   1      39.451  31.730  29.635  1.00  0.00    +0.000 H 
BRANCH   25   23
ATOM     23  C18 UNL A   1      35.152  31.539  27.949  1.00  0.00    +0.000 C 
ATOM     24  O3  UNL A   1      34.817  32.644  28.325  1.00  0.00    +0.000 O 
BRANCH   23   22
ATOM    117  H27 UNL A   1      34.695  29.979  26.745  1.00  0.00    +0.000 H 
ATOM     22  N3  UNL A   1      34.281  30.723  27.238  1.00  0.00    +0.000 N 
BRANCH   22   21
ATOM    115  H25 UNL A   1      32.405  30.828  28.117  1.00  0.00    +0.000 H 
ATOM    116  H26 UNL A   1      32.600  31.737  26.609  1.00  0.00    +0.000 H 
ATOM     21  C17 UNL A   1      32.823  30.830  27.131  1.00  0.00    +0.000 C 
BRANCH   21   20
ATOM    113  H23 UNL A   1      31.423  29.255  26.927  1.00  0.00    +0.000 H 
ATOM    114  H24 UNL A   1      31.852  30.091  25.421  1.00  0.00    +0.000 H 
ATOM     20  C16 UNL A   1      32.211  29.685  26.344  1.00  0.00    +0.000 C 
BRANCH   20   19
ATOM     19  C15 UNL A   1      33.219  28.581  25.996  1.00  0.00    +0.000 C 
ATOM    111  H21 UNL A   1      33.362  28.591  24.936  1.00  0.00    +0.000 H 
ATOM    112  H22 UNL A   1      34.098  28.810  26.563  1.00  0.00    +0.000 H 
BRANCH   19   18
ATOM     18  C14 UNL A   1      32.830  27.150  26.403  1.00  0.00    +0.000 C 
ATOM    109  H19 UNL A   1      32.765  27.115  27.471  1.00  0.00    +0.000 H 
ATOM    110  H20 UNL A   1      31.903  26.942  25.912  1.00  0.00    +0.000 H 
BRANCH   18   17
ATOM     17  C13 UNL A   1      33.806  26.058  25.954  1.00  0.00    +0.000 C 
ATOM    107  H17 UNL A   1      33.946  26.143  24.896  1.00  0.00    +0.000 H 
ATOM    108  H18 UNL A   1      34.718  26.206  26.493  1.00  0.00    +0.000 H 
BRANCH   17   16
ATOM    105  H15 UNL A   1      32.789  24.652  27.198  1.00  0.00    +0.000 H 
ATOM    106  H16 UNL A   1      32.673  24.317  25.479  1.00  0.00    +0.000 H 
ATOM     16  C12 UNL A   1      33.317  24.644  26.268  1.00  0.00    +0.000 C 
BRANCH   16   15
ATOM     15  N2  UNL A   1      34.434  23.734  26.365  1.00  0.00    +0.000 N 
ATOM    104  H14 UNL A   1      35.118  23.998  27.021  1.00  0.00    +0.000 H 
BRANCH   15   13
ATOM     13  C11 UNL A   1      34.702  22.578  25.707  1.00  0.00    +0.000 C 
ATOM     14  O2  UNL A   1      35.173  21.649  26.367  1.00  0.00    +0.000 O 
BRANCH   13   12
ATOM     12  C10 UNL A   1      34.548  22.449  24.202  1.00  0.00    +0.000 C 
ATOM    102  H12 UNL A   1      34.776  23.410  23.788  1.00  0.00    +0.000 H 
ATOM    103  H13 UNL A   1      35.199  21.634  23.965  1.00  0.00    +0.000 H 
BRANCH   12   11
ATOM     11  C9  UNL A   1      33.213  22.011  23.586  1.00  0.00    +0.000 C 
ATOM    100  H10 UNL A   1      33.421  21.126  23.023  1.00  0.00    +0.000 H 
ATOM    101  H11 UNL A   1      32.582  21.946  24.447  1.00  0.00    +0.000 H 
BRANCH   11   10
ATOM     10  C8  UNL A   1      32.399  22.931  22.660  1.00  0.00    +0.000 C 
ATOM     99  H9  UNL A   1      31.456  22.428  22.603  1.00  0.00    +0.000 H 
ATOM     98  H8  UNL A   1      32.971  23.041  21.763  1.00  0.00    +0.000 H 
BRANCH   10    9
ATOM      2  C2  UNL A   1      30.049  28.567  22.936  1.00  0.00    +0.000 C 
ATOM      3  C3  UNL A   1      31.367  28.935  22.632  1.00  0.00    +0.000 C 
ATOM      4  C4  UNL A   1      32.377  27.958  22.583  1.00  0.00    +0.000 C 
ATOM      6  C6  UNL A   1      31.989  26.641  22.798  1.00  0.00    +0.000 C 
ATOM      7  C7  UNL A   1      32.761  25.387  22.649  1.00  0.00    +0.000 C 
ATOM      8  O1  UNL A   1      33.863  25.355  22.117  1.00  0.00    +0.000 O 
ATOM      9  N1  UNL A   1      32.019  24.278  23.077  1.00  0.00    +0.000 N 
ATOM     88  S1  UNL A   1      30.447  24.695  23.613  1.00  0.00    +0.000 S 
ATOM     89  C63 UNL A   1      30.683  26.384  23.162  1.00  0.00    +0.000 C 
ATOM     90  N8  UNL A   1      29.695  27.293  23.221  1.00  0.00    +0.000 N 
ATOM     94  H4  UNL A   1      31.595  29.924  22.443  1.00  0.00    +0.000 H 
BRANCH    2    1
ATOM      1  C1  UNL A   1      28.941  29.578  22.928  1.00  0.00    +0.000 C 
ATOM     91  H1  UNL A   1      28.044  29.120  22.567  1.00  0.00    +0.000 H 
ATOM     92  H2  UNL A   1      29.207  30.394  22.290  1.00  0.00    +0.000 H 
ATOM     93  H3  UNL A   1      28.781  29.940  23.923  1.00  0.00    +0.000 H 
ENDBRANCH    2    1
BRANCH    4    5
ATOM     97  H7  UNL A   1      34.329  27.516  21.915  1.00  0.00    +0.000 H 
ATOM      5  C5  UNL A   1      33.804  28.342  22.347  1.00  0.00    +0.000 C 
ATOM     95  H5  UNL A   1      34.260  28.608  23.277  1.00  0.00    +0.000 H 
ATOM     96  H6  UNL A   1      33.842  29.178  21.678  1.00  0.00    +0.000 H 
ENDBRANCH    4    5
ENDBRANCH   10    9
ENDBRANCH   11   10
ENDBRANCH   12   11
ENDBRANCH   13   12
ENDBRANCH   15   13
ENDBRANCH   16   15
ENDBRANCH   17   16
ENDBRANCH   18   17
ENDBRANCH   19   18
ENDBRANCH   20   19
ENDBRANCH   21   20
ENDBRANCH   22   21
ENDBRANCH   23   22
ENDBRANCH   25   23
ENDBRANCH   29   28
BRANCH   33   34
ATOM     34  C27 UNL A   1      42.566  27.583  34.313  1.00  0.00    +0.000 C 
ATOM     35  C28 UNL A   1      43.130  26.369  33.872  1.00  0.00    +0.000 C 
ATOM     36  F1  UNL A   1      43.659  26.266  32.645  1.00  0.00    +0.000 F 
ATOM     37  C29 UNL A   1      43.092  25.210  34.653  1.00  0.00    +0.000 C 
ATOM     38  F2  UNL A   1      43.540  24.053  34.149  1.00  0.00    +0.000 F 
ATOM     39  C30 UNL A   1      42.541  25.234  35.922  1.00  0.00    +0.000 C 
ATOM     40  F3  UNL A   1      42.460  24.115  36.651  1.00  0.00    +0.000 F 
ATOM     41  C31 UNL A   1      42.030  26.417  36.411  1.00  0.00    +0.000 C 
ATOM     42  F4  UNL A   1      41.474  26.457  37.630  1.00  0.00    +0.000 F 
ATOM     43  C32 UNL A   1      42.017  27.560  35.613  1.00  0.00    +0.000 C 
ATOM     44  F5  UNL A   1      41.351  28.602  36.125  1.00  0.00    +0.000 F 
ENDBRANCH   33   34
BRANCH   50   51
ATOM     51  C38 UNL A   1      45.279  30.670  28.769  1.00  0.00    +0.000 C 
ATOM     52  C39 UNL A   1      44.263  31.353  28.075  1.00  0.00    +0.000 C 
ATOM     53  F6  UNL A   1      42.979  31.009  28.228  1.00  0.00    +0.000 F 
ATOM     54  C40 UNL A   1      44.549  32.441  27.249  1.00  0.00    +0.000 C 
ATOM     55  F7  UNL A   1      43.561  33.066  26.593  1.00  0.00    +0.000 F 
ATOM     56  C41 UNL A   1      45.850  32.900  27.133  1.00  0.00    +0.000 C 
ATOM     57  F8  UNL A   1      46.122  33.972  26.375  1.00  0.00    +0.000 F 
ATOM     58  C42 UNL A   1      46.865  32.262  27.826  1.00  0.00    +0.000 C 
ATOM     59  F9  UNL A   1      48.120  32.728  27.753  1.00  0.00    +0.000 F 
ATOM     60  C43 UNL A   1      46.586  31.153  28.621  1.00  0.00    +0.000 C 
ATOM     61  F10 UNL A   1      47.593  30.574  29.295  1.00  0.00    +0.000 F 
ENDBRANCH   50   51
BRANCH   65   66
ATOM     66  C47 UNL A   1      43.538  25.262  25.950  1.00  0.00    +0.000 C 
ATOM     67  C48 UNL A   1      44.653  24.981  25.144  1.00  0.00    +0.000 C 
ATOM     68  F11 UNL A   1      45.531  25.950  24.849  1.00  0.00    +0.000 F 
ATOM     69  C49 UNL A   1      44.927  23.683  24.701  1.00  0.00    +0.000 C 
ATOM     70  F12 UNL A   1      46.041  23.439  23.995  1.00  0.00    +0.000 F 
ATOM     71  C50 UNL A   1      44.089  22.634  25.042  1.00  0.00    +0.000 C 
ATOM     72  F13 UNL A   1      44.392  21.379  24.681  1.00  0.00    +0.000 F 
ATOM     73  C51 UNL A   1      42.959  22.886  25.799  1.00  0.00    +0.000 C 
ATOM     74  F14 UNL A   1      42.160  21.873  26.167  1.00  0.00    +0.000 F 
ATOM     75  C52 UNL A   1      42.685  24.180  26.245  1.00  0.00    +0.000 C 
ATOM     76  F15 UNL A   1      41.629  24.339  27.053  1.00  0.00    +0.000 F 
ENDBRANCH   65   66
TORSDOF 20
ENDMDL
MODEL 4
REMARK VINA RESULT:     -10.6     35.410     41.507
ROOT
ATOM    129  H39 UNL A   1       6.752  32.733   0.882  1.00  0.00    +0.000 H 
ATOM     29  C23 UNL A   1       8.550  30.514   0.645  1.00  0.00    +0.000 C 
ATOM     30  C24 UNL A   1       7.856  31.252  -0.435  1.00  0.00    +0.000 C 
ATOM     31  N4  UNL A   1       7.850  30.977  -1.696  1.00  0.00    +0.000 N 
ATOM     32  C25 UNL A   1       7.081  31.968  -2.298  1.00  0.00    +0.000 C 
ATOM     33  C26 UNL A   1       7.234  32.270  -3.616  1.00  0.00    +0.000 C 
ATOM     45  C33 UNL A   1       7.964  31.233  -4.302  1.00  0.00    +0.000 C 
ATOM     46  C34 UNL A   1       7.714  29.912  -4.615  1.00  0.00    +0.000 C 
ATOM     47  C35 UNL A   1       8.968  29.248  -4.464  1.00  0.00    +0.000 C 
ATOM     48  C36 UNL A   1       9.929  30.204  -4.127  1.00  0.00    +0.000 C 
ATOM     49  N5  UNL A   1       9.322  31.396  -4.425  1.00  0.00    +0.000 N 
ATOM     50  C37 UNL A   1      11.228  30.099  -3.496  1.00  0.00    +0.000 C 
ATOM     62  C44 UNL A   1      11.914  31.138  -2.933  1.00  0.00    +0.000 C 
ATOM     63  N6  UNL A   1      12.908  30.907  -1.991  1.00  0.00    +0.000 N 
ATOM     64  C45 UNL A   1      12.938  31.990  -1.262  1.00  0.00    +0.000 C 
ATOM     65  C46 UNL A   1      13.142  31.982   0.210  1.00  0.00    +0.000 C 
ATOM     77  C53 UNL A   1      12.061  31.358   0.737  1.00  0.00    +0.000 C 
ATOM     78  C54 UNL A   1      11.883  30.725   2.022  1.00  0.00    +0.000 C 
ATOM     79  C55 UNL A   1      10.646  30.190   2.054  1.00  0.00    +0.000 C 
ATOM     80  C56 UNL A   1       9.880  30.615   0.873  1.00  0.00    +0.000 C 
ATOM     81  N7  UNL A   1      10.818  31.232   0.084  1.00  0.00    +0.000 N 
ATOM     82  C57 UNL A   1      12.303  33.158  -1.847  1.00  0.00    +0.000 C 
ATOM     83  C58 UNL A   1      11.631  32.567  -2.837  1.00  0.00    +0.000 C 
ATOM     84  C59 UNL A   1       6.410  32.664  -1.231  1.00  0.00    +0.000 C 
ATOM     85  C60 UNL A   1       6.938  32.335  -0.051  1.00  0.00    +0.000 C 
ATOM    120  H30 UNL A   1       6.813  29.495  -4.899  1.00  0.00    +0.000 H 
ATOM    121  H31 UNL A   1       9.136  28.237  -4.582  1.00  0.00    +0.000 H 
ATOM    122  H32 UNL A   1       9.780  32.229  -4.684  1.00  0.00    +0.000 H 
ATOM    123  H33 UNL A   1      12.579  30.689   2.782  1.00  0.00    +0.000 H 
ATOM    124  H34 UNL A   1      10.288  29.571   2.800  1.00  0.00    +0.000 H 
ATOM    125  H35 UNL A   1      10.643  31.550  -0.831  1.00  0.00    +0.000 H 
ATOM    126  H36 UNL A   1      12.355  34.152  -1.577  1.00  0.00    +0.000 H 
ATOM    127  H37 UNL A   1      10.981  33.065  -3.466  1.00  0.00    +0.000 H 
ATOM    128  H38 UNL A   1       5.629  33.326  -1.362  1.00  0.00    +0.000 H 
ENDROOT
BRANCH   29   28
ATOM    130  H40 UNL A   1       7.651  28.091   0.427  1.00  0.00    +0.000 H 
ATOM    131  H41 UNL A   1       5.603  27.316   1.482  1.00  0.00    +0.000 H 
ATOM     28  C22 UNL A   1       7.668  29.850   1.588  1.00  0.00    +0.000 C 
ATOM     86  C61 UNL A   1       7.214  28.600   1.211  1.00  0.00    +0.000 C 
ATOM     87  C62 UNL A   1       6.176  28.061   1.906  1.00  0.00    +0.000 C 
ATOM    118  H28 UNL A   1       6.201  30.072   4.591  1.00  0.00    +0.000 H 
ATOM     25  C19 UNL A   1       5.890  28.516   3.184  1.00  0.00    +0.000 C 
ATOM     26  C20 UNL A   1       6.431  29.718   3.650  1.00  0.00    +0.000 C 
ATOM     27  C21 UNL A   1       7.290  30.425   2.811  1.00  0.00    +0.000 C 
ATOM    119  H29 UNL A   1       7.641  31.356   3.084  1.00  0.00    +0.000 H 
BRANCH   25   23
ATOM     23  C18 UNL A   1       5.018  27.666   4.017  1.00  0.00    +0.000 C 
ATOM     24  O3  UNL A   1       3.810  27.724   3.906  1.00  0.00    +0.000 O 
BRANCH   23   22
ATOM    117  H27 UNL A   1       5.692  27.122   5.844  1.00  0.00    +0.000 H 
ATOM     22  N3  UNL A   1       5.620  26.798   4.917  1.00  0.00    +0.000 N 
BRANCH   22   21
ATOM    115  H25 UNL A   1       6.086  24.882   5.560  1.00  0.00    +0.000 H 
ATOM    116  H26 UNL A   1       5.598  25.027   3.864  1.00  0.00    +0.000 H 
ATOM     21  C17 UNL A   1       6.162  25.460   4.662  1.00  0.00    +0.000 C 
BRANCH   21   20
ATOM    113  H23 UNL A   1       8.054  24.537   4.434  1.00  0.00    +0.000 H 
ATOM    114  H24 UNL A   1       7.633  25.727   3.187  1.00  0.00    +0.000 H 
ATOM     20  C16 UNL A   1       7.617  25.493   4.230  1.00  0.00    +0.000 C 
BRANCH   20   19
ATOM     19  C15 UNL A   1       8.440  26.569   4.952  1.00  0.00    +0.000 C 
ATOM    111  H21 UNL A   1       7.756  27.260   5.398  1.00  0.00    +0.000 H 
ATOM    112  H22 UNL A   1       9.050  26.037   5.654  1.00  0.00    +0.000 H 
BRANCH   19   18
ATOM     18  C14 UNL A   1       9.422  27.374   4.084  1.00  0.00    +0.000 C 
ATOM    109  H19 UNL A   1       8.977  28.325   3.876  1.00  0.00    +0.000 H 
ATOM    110  H20 UNL A   1      10.330  27.441   4.645  1.00  0.00    +0.000 H 
BRANCH   18   17
ATOM     17  C13 UNL A   1       9.793  26.723   2.748  1.00  0.00    +0.000 C 
ATOM    107  H17 UNL A   1       9.356  25.746   2.714  1.00  0.00    +0.000 H 
ATOM    108  H18 UNL A   1       9.419  27.357   1.972  1.00  0.00    +0.000 H 
BRANCH   17   16
ATOM    105  H15 UNL A   1      11.590  27.162   1.683  1.00  0.00    +0.000 H 
ATOM    106  H16 UNL A   1      11.805  26.949   3.411  1.00  0.00    +0.000 H 
ATOM     16  C12 UNL A   1      11.301  26.589   2.539  1.00  0.00    +0.000 C 
BRANCH   16   15
ATOM     15  N2  UNL A   1      11.661  25.207   2.328  1.00  0.00    +0.000 N 
ATOM    104  H14 UNL A   1      12.118  25.031   1.475  1.00  0.00    +0.000 H 
BRANCH   15   13
ATOM     13  C11 UNL A   1      11.477  24.109   3.105  1.00  0.00    +0.000 C 
ATOM     14  O2  UNL A   1      11.214  23.050   2.530  1.00  0.00    +0.000 O 
BRANCH   13   12
ATOM     12  C10 UNL A   1      11.473  24.181   4.620  1.00  0.00    +0.000 C 
ATOM    102  H12 UNL A   1      12.454  23.899   4.942  1.00  0.00    +0.000 H 
ATOM    103  H13 UNL A   1      11.152  25.184   4.811  1.00  0.00    +0.000 H 
BRANCH   12   11
ATOM     11  C9  UNL A   1      10.484  23.344   5.442  1.00  0.00    +0.000 C 
ATOM    100  H10 UNL A   1       9.508  23.605   5.090  1.00  0.00    +0.000 H 
ATOM    101  H11 UNL A   1      10.847  22.350   5.282  1.00  0.00    +0.000 H 
BRANCH   11   10
ATOM     10  C8  UNL A   1      10.425  23.421   6.977  1.00  0.00    +0.000 C 
ATOM     99  H9  UNL A   1      11.450  23.575   7.243  1.00  0.00    +0.000 H 
ATOM     98  H8  UNL A   1       9.943  22.525   7.307  1.00  0.00    +0.000 H 
BRANCH   10    9
ATOM      2  C2  UNL A   1       7.821  27.078  11.126  1.00  0.00    +0.000 C 
ATOM      3  C3  UNL A   1       6.641  26.590  10.548  1.00  0.00    +0.000 C 
ATOM      4  C4  UNL A   1       6.702  25.766   9.410  1.00  0.00    +0.000 C 
ATOM      6  C6  UNL A   1       7.967  25.435   8.942  1.00  0.00    +0.000 C 
ATOM      7  C7  UNL A   1       8.370  24.472   7.892  1.00  0.00    +0.000 C 
ATOM      8  O1  UNL A   1       7.584  23.674   7.399  1.00  0.00    +0.000 O 
ATOM      9  N1  UNL A   1       9.749  24.526   7.652  1.00  0.00    +0.000 N 
ATOM     88  S1  UNL A   1      10.556  25.659   8.652  1.00  0.00    +0.000 S 
ATOM     89  C63 UNL A   1       9.069  26.021   9.531  1.00  0.00    +0.000 C 
ATOM     90  N8  UNL A   1       9.046  26.815  10.616  1.00  0.00    +0.000 N 
ATOM     94  H4  UNL A   1       5.726  26.836  10.960  1.00  0.00    +0.000 H 
BRANCH    2    1
ATOM      1  C1  UNL A   1       7.787  27.902  12.379  1.00  0.00    +0.000 C 
ATOM     91  H1  UNL A   1       8.427  27.460  13.114  1.00  0.00    +0.000 H 
ATOM     92  H2  UNL A   1       6.787  27.941  12.754  1.00  0.00    +0.000 H 
ATOM     93  H3  UNL A   1       8.126  28.894  12.162  1.00  0.00    +0.000 H 
ENDBRANCH    2    1
BRANCH    4    5
ATOM     97  H7  UNL A   1       5.642  24.389   8.214  1.00  0.00    +0.000 H 
ATOM      5  C5  UNL A   1       5.452  25.308   8.728  1.00  0.00    +0.000 C 
ATOM     95  H5  UNL A   1       5.137  26.051   8.025  1.00  0.00    +0.000 H 
ATOM     96  H6  UNL A   1       4.682  25.157   9.457  1.00  0.00    +0.000 H 
ENDBRANCH    4    5
ENDBRANCH   10    9
ENDBRANCH   11   10
ENDBRANCH   12   11
ENDBRANCH   13   12
ENDBRANCH   15   13
ENDBRANCH   16   15
ENDBRANCH   17   16
ENDBRANCH   18   17
ENDBRANCH   19   18
ENDBRANCH   20   19
ENDBRANCH   21   20
ENDBRANCH   22   21
ENDBRANCH   23   22
ENDBRANCH   25   23
ENDBRANCH   29   28
BRANCH   33   34
ATOM     34  C27 UNL A   1       7.027  33.639  -4.213  1.00  0.00    +0.000 C 
ATOM     35  C28 UNL A   1       7.917  34.680  -3.879  1.00  0.00    +0.000 C 
ATOM     36  F1  UNL A   1       9.057  34.421  -3.222  1.00  0.00    +0.000 F 
ATOM     37  C29 UNL A   1       7.619  36.021  -4.142  1.00  0.00    +0.000 C 
ATOM     38  F2  UNL A   1       8.443  36.982  -3.707  1.00  0.00    +0.000 F 
ATOM     39  C30 UNL A   1       6.451  36.366  -4.797  1.00  0.00    +0.000 C 
ATOM     40  F3  UNL A   1       6.140  37.651  -5.006  1.00  0.00    +0.000 F 
ATOM     41  C31 UNL A   1       5.580  35.372  -5.190  1.00  0.00    +0.000 C 
ATOM     42  F4  UNL A   1       4.434  35.686  -5.807  1.00  0.00    +0.000 F 
ATOM     43  C32 UNL A   1       5.849  34.039  -4.879  1.00  0.00    +0.000 C 
ATOM     44  F5  UNL A   1       4.862  33.180  -5.162  1.00  0.00    +0.000 F 
ENDBRANCH   33   34
BRANCH   50   51
ATOM     51  C38 UNL A   1      11.757  28.705  -3.257  1.00  0.00    +0.000 C 
ATOM     52  C39 UNL A   1      11.435  27.919  -2.135  1.00  0.00    +0.000 C 
ATOM     53  F6  UNL A   1      10.652  28.402  -1.163  1.00  0.00    +0.000 F 
ATOM     54  C40 UNL A   1      11.870  26.598  -2.021  1.00  0.00    +0.000 C 
ATOM     55  F7  UNL A   1      11.555  25.877  -0.935  1.00  0.00    +0.000 F 
ATOM     56  C41 UNL A   1      12.599  26.018  -3.045  1.00  0.00    +0.000 C 
ATOM     57  F8  UNL A   1      12.982  24.736  -2.958  1.00  0.00    +0.000 F 
ATOM     58  C42 UNL A   1      12.908  26.762  -4.172  1.00  0.00    +0.000 C 
ATOM     59  F9  UNL A   1      13.574  26.193  -5.186  1.00  0.00    +0.000 F 
ATOM     60  C43 UNL A   1      12.505  28.092  -4.270  1.00  0.00    +0.000 C 
ATOM     61  F10 UNL A   1      12.804  28.773  -5.387  1.00  0.00    +0.000 F 
ENDBRANCH   50   51
BRANCH   65   66
ATOM     66  C47 UNL A   1      14.080  32.908   0.887  1.00  0.00    +0.000 C 
ATOM     67  C48 UNL A   1      13.598  33.906   1.750  1.00  0.00    +0.000 C 
ATOM     68  F11 UNL A   1      12.290  34.201   1.773  1.00  0.00    +0.000 F 
ATOM     69  C49 UNL A   1      14.439  34.554   2.660  1.00  0.00    +0.000 C 
ATOM     70  F12 UNL A   1      13.930  35.449   3.520  1.00  0.00    +0.000 F 
ATOM     71  C50 UNL A   1      15.784  34.230   2.726  1.00  0.00    +0.000 C 
ATOM     72  F13 UNL A   1      16.573  34.796   3.649  1.00  0.00    +0.000 F 
ATOM     73  C51 UNL A   1      16.297  33.282   1.859  1.00  0.00    +0.000 C 
ATOM     74  F14 UNL A   1      17.589  32.933   1.938  1.00  0.00    +0.000 F 
ATOM     75  C52 UNL A   1      15.459  32.631   0.951  1.00  0.00    +0.000 C 
ATOM     76  F15 UNL A   1      16.000  31.656   0.208  1.00  0.00    +0.000 F 
ENDBRANCH   65   66
TORSDOF 20
ENDMDL
MODEL 5
REMARK VINA RESULT:     -10.3      5.394     11.469
ROOT
ATOM    129  H39 UNL A   1      38.534  27.534  30.837  1.00  0.00    +0.000 H 
ATOM     29  C23 UNL A   1      40.072  29.115  29.008  1.00  0.00    +0.000 C 
ATOM     30  C24 UNL A   1      40.336  28.855  30.441  1.00  0.00    +0.000 C 
ATOM     31  N4  UNL A   1      41.264  29.371  31.176  1.00  0.00    +0.000 N 
ATOM     32  C25 UNL A   1      41.114  28.799  32.435  1.00  0.00    +0.000 C 
ATOM     33  C26 UNL A   1      42.157  28.740  33.307  1.00  0.00    +0.000 C 
ATOM     45  C33 UNL A   1      43.218  29.630  32.903  1.00  0.00    +0.000 C 
ATOM     46  C34 UNL A   1      43.353  30.999  32.805  1.00  0.00    +0.000 C 
ATOM     47  C35 UNL A   1      44.143  31.213  31.636  1.00  0.00    +0.000 C 
ATOM     48  C36 UNL A   1      44.500  29.967  31.116  1.00  0.00    +0.000 C 
ATOM     49  N5  UNL A   1      44.228  29.098  32.141  1.00  0.00    +0.000 N 
ATOM     50  C37 UNL A   1      44.938  29.549  29.801  1.00  0.00    +0.000 C 
ATOM     62  C44 UNL A   1      44.937  28.261  29.346  1.00  0.00    +0.000 C 
ATOM     63  N6  UNL A   1      44.949  27.987  27.985  1.00  0.00    +0.000 N 
ATOM     64  C45 UNL A   1      44.374  26.819  27.872  1.00  0.00    +0.000 C 
ATOM     65  C46 UNL A   1      43.447  26.465  26.767  1.00  0.00    +0.000 C 
ATOM     77  C53 UNL A   1      42.361  27.263  26.916  1.00  0.00    +0.000 C 
ATOM     78  C54 UNL A   1      41.345  27.643  25.964  1.00  0.00    +0.000 C 
ATOM     79  C55 UNL A   1      40.506  28.505  26.574  1.00  0.00    +0.000 C 
ATOM     80  C56 UNL A   1      40.812  28.578  28.011  1.00  0.00    +0.000 C 
ATOM     81  N7  UNL A   1      41.991  27.884  28.126  1.00  0.00    +0.000 N 
ATOM     82  C57 UNL A   1      44.294  26.039  29.094  1.00  0.00    +0.000 C 
ATOM     83  C58 UNL A   1      44.587  26.993  29.981  1.00  0.00    +0.000 C 
ATOM     84  C59 UNL A   1      39.838  28.132  32.429  1.00  0.00    +0.000 C 
ATOM     85  C60 UNL A   1      39.363  28.041  31.185  1.00  0.00    +0.000 C 
ATOM    120  H30 UNL A   1      42.967  31.715  33.441  1.00  0.00    +0.000 H 
ATOM    121  H31 UNL A   1      44.406  32.131  31.241  1.00  0.00    +0.000 H 
ATOM    122  H32 UNL A   1      44.680  28.237  32.303  1.00  0.00    +0.000 H 
ATOM    123  H33 UNL A   1      41.272  27.314  24.989  1.00  0.00    +0.000 H 
ATOM    124  H34 UNL A   1      39.757  29.036  26.102  1.00  0.00    +0.000 H 
ATOM    125  H35 UNL A   1      42.516  27.827  28.957  1.00  0.00    +0.000 H 
ATOM    126  H36 UNL A   1      44.073  25.041  29.236  1.00  0.00    +0.000 H 
ATOM    127  H37 UNL A   1      44.568  26.850  31.003  1.00  0.00    +0.000 H 
ATOM    128  H38 UNL A   1      39.357  27.775  33.269  1.00  0.00    +0.000 H 
ENDROOT
BRANCH   29   28
ATOM    130  H40 UNL A   1      39.647  31.654  29.327  1.00  0.00    +0.000 H 
ATOM    131  H41 UNL A   1      37.444  32.614  29.689  1.00  0.00    +0.000 H 
ATOM     28  C22 UNL A   1      38.824  29.805  28.738  1.00  0.00    +0.000 C 
ATOM     86  C61 UNL A   1      38.783  31.140  29.095  1.00  0.00    +0.000 C 
ATOM     87  C62 UNL A   1      37.570  31.754  29.133  1.00  0.00    +0.000 C 
ATOM    118  H28 UNL A   1      35.756  29.505  27.429  1.00  0.00    +0.000 H 
ATOM     25  C19 UNL A   1      36.504  31.222  28.424  1.00  0.00    +0.000 C 
ATOM     26  C20 UNL A   1      36.556  29.913  27.936  1.00  0.00    +0.000 C 
ATOM     27  C21 UNL A   1      37.718  29.174  28.149  1.00  0.00    +0.000 C 
ATOM    119  H29 UNL A   1      37.763  28.179  27.880  1.00  0.00    +0.000 H 
BRANCH   25   23
ATOM     23  C18 UNL A   1      35.343  32.104  28.200  1.00  0.00    +0.000 C 
ATOM     24  O3  UNL A   1      34.212  31.675  28.298  1.00  0.00    +0.000 O 
BRANCH   23   22
ATOM    117  H27 UNL A   1      35.890  33.609  26.965  1.00  0.00    +0.000 H 
ATOM     22  N3  UNL A   1      35.586  33.434  27.885  1.00  0.00    +0.000 N 
BRANCH   22   21
ATOM    115  H25 UNL A   1      35.506  34.295  29.769  1.00  0.00    +0.000 H 
ATOM    116  H26 UNL A   1      36.233  35.292  28.499  1.00  0.00    +0.000 H 
ATOM     21  C17 UNL A   1      35.447  34.611  28.748  1.00  0.00    +0.000 C 
BRANCH   21   20
ATOM    113  H23 UNL A   1      34.305  36.388  28.615  1.00  0.00    +0.000 H 
ATOM    114  H24 UNL A   1      33.763  35.055  27.575  1.00  0.00    +0.000 H 
ATOM     20  C16 UNL A   1      34.129  35.334  28.541  1.00  0.00    +0.000 C 
BRANCH   20   19
ATOM     19  C15 UNL A   1      33.055  34.945  29.566  1.00  0.00    +0.000 C 
ATOM    111  H21 UNL A   1      32.115  34.906  29.057  1.00  0.00    +0.000 H 
ATOM    112  H22 UNL A   1      33.377  34.008  29.973  1.00  0.00    +0.000 H 
BRANCH   19   18
ATOM     18  C14 UNL A   1      32.895  35.882  30.775  1.00  0.00    +0.000 C 
ATOM    109  H19 UNL A   1      32.961  36.890  30.424  1.00  0.00    +0.000 H 
ATOM    110  H20 UNL A   1      31.950  35.643  31.214  1.00  0.00    +0.000 H 
BRANCH   18   17
ATOM     17  C13 UNL A   1      33.937  35.698  31.882  1.00  0.00    +0.000 C 
ATOM    107  H17 UNL A   1      34.912  35.763  31.445  1.00  0.00    +0.000 H 
ATOM    108  H18 UNL A   1      33.770  36.468  32.606  1.00  0.00    +0.000 H 
BRANCH   17   16
ATOM    105  H15 UNL A   1      34.103  34.485  33.632  1.00  0.00    +0.000 H 
ATOM    106  H16 UNL A   1      32.805  34.020  32.548  1.00  0.00    +0.000 H 
ATOM     16  C12 UNL A   1      33.818  34.358  32.609  1.00  0.00    +0.000 C 
BRANCH   16   15
ATOM     15  N2  UNL A   1      34.677  33.373  31.996  1.00  0.00    +0.000 N 
ATOM    104  H14 UNL A   1      34.254  32.856  31.274  1.00  0.00    +0.000 H 
BRANCH   15   13
ATOM     13  C11 UNL A   1      35.968  33.037  32.247  1.00  0.00    +0.000 C 
ATOM     14  O2  UNL A   1      36.840  33.820  31.862  1.00  0.00    +0.000 O 
BRANCH   13   12
ATOM     12  C10 UNL A   1      36.352  31.706  32.867  1.00  0.00    +0.000 C 
ATOM    102  H12 UNL A   1      36.134  31.781  33.912  1.00  0.00    +0.000 H 
ATOM    103  H13 UNL A   1      35.792  31.002  32.287  1.00  0.00    +0.000 H 
BRANCH   12   11
ATOM     11  C9  UNL A   1      37.787  31.175  32.755  1.00  0.00    +0.000 C 
ATOM    100  H10 UNL A   1      37.721  30.112  32.863  1.00  0.00    +0.000 H 
ATOM    101  H11 UNL A   1      38.104  31.586  31.820  1.00  0.00    +0.000 H 
BRANCH   11   10
ATOM     10  C8  UNL A   1      38.906  31.636  33.705  1.00  0.00    +0.000 C 
ATOM     99  H9  UNL A   1      39.617  32.070  33.034  1.00  0.00    +0.000 H 
ATOM     98  H8  UNL A   1      39.199  30.775  34.269  1.00  0.00    +0.000 H 
BRANCH   10    9
ATOM      2  C2  UNL A   1      39.560  35.828  38.105  1.00  0.00    +0.000 C 
ATOM      3  C3  UNL A   1      38.864  34.876  38.863  1.00  0.00    +0.000 C 
ATOM      4  C4  UNL A   1      38.352  33.721  38.246  1.00  0.00    +0.000 C 
ATOM      6  C6  UNL A   1      38.615  33.565  36.891  1.00  0.00    +0.000 C 
ATOM      7  C7  UNL A   1      38.368  32.405  36.003  1.00  0.00    +0.000 C 
ATOM      8  O1  UNL A   1      38.034  31.310  36.434  1.00  0.00    +0.000 O 
ATOM      9  N1  UNL A   1      38.682  32.708  34.671  1.00  0.00    +0.000 N 
ATOM     88  S1  UNL A   1      39.277  34.301  34.472  1.00  0.00    +0.000 S 
ATOM     89  C63 UNL A   1      39.244  34.589  36.213  1.00  0.00    +0.000 C 
ATOM     90  N8  UNL A   1      39.742  35.705  36.771  1.00  0.00    +0.000 N 
ATOM     94  H4  UNL A   1      38.729  35.023  39.877  1.00  0.00    +0.000 H 
BRANCH    2    1
ATOM      1  C1  UNL A   1      40.174  37.035  38.751  1.00  0.00    +0.000 C 
ATOM     91  H1  UNL A   1      40.035  37.886  38.118  1.00  0.00    +0.000 H 
ATOM     92  H2  UNL A   1      41.220  36.867  38.899  1.00  0.00    +0.000 H 
ATOM     93  H3  UNL A   1      39.704  37.212  39.696  1.00  0.00    +0.000 H 
ENDBRANCH    2    1
BRANCH    4    5
ATOM     97  H7  UNL A   1      37.665  31.760  38.607  1.00  0.00    +0.000 H 
ATOM      5  C5  UNL A   1      37.533  32.738  39.020  1.00  0.00    +0.000 C 
ATOM     95  H5  UNL A   1      36.500  33.012  38.965  1.00  0.00    +0.000 H 
ATOM     96  H6  UNL A   1      37.848  32.737  40.044  1.00  0.00    +0.000 H 
ENDBRANCH    4    5
ENDBRANCH   10    9
ENDBRANCH   11   10
ENDBRANCH   12   11
ENDBRANCH   13   12
ENDBRANCH   15   13
ENDBRANCH   16   15
ENDBRANCH   17   16
ENDBRANCH   18   17
ENDBRANCH   19   18
ENDBRANCH   20   19
ENDBRANCH   21   20
ENDBRANCH   22   21
ENDBRANCH   23   22
ENDBRANCH   25   23
ENDBRANCH   29   28
BRANCH   33   34
ATOM     34  C27 UNL A   1      42.366  27.647  34.325  1.00  0.00    +0.000 C 
ATOM     35  C28 UNL A   1      42.953  26.431  33.921  1.00  0.00    +0.000 C 
ATOM     36  F1  UNL A   1      43.522  26.314  32.713  1.00  0.00    +0.000 F 
ATOM     37  C29 UNL A   1      42.899  25.283  34.719  1.00  0.00    +0.000 C 
ATOM     38  F2  UNL A   1      43.372  24.123  34.247  1.00  0.00    +0.000 F 
ATOM     39  C30 UNL A   1      42.307  25.323  35.968  1.00  0.00    +0.000 C 
ATOM     40  F3  UNL A   1      42.211  24.214  36.712  1.00  0.00    +0.000 F 
ATOM     41  C31 UNL A   1      41.771  26.508  36.422  1.00  0.00    +0.000 C 
ATOM     42  F4  UNL A   1      41.176  26.563  37.622  1.00  0.00    +0.000 F 
ATOM     43  C32 UNL A   1      41.775  27.639  35.607  1.00  0.00    +0.000 C 
ATOM     44  F5  UNL A   1      41.085  28.684  36.081  1.00  0.00    +0.000 F 
ENDBRANCH   33   34
BRANCH   50   51
ATOM     51  C38 UNL A   1      45.212  30.642  28.796  1.00  0.00    +0.000 C 
ATOM     52  C39 UNL A   1      44.213  31.305  28.059  1.00  0.00    +0.000 C 
ATOM     53  F6  UNL A   1      42.927  30.956  28.180  1.00  0.00    +0.000 F 
ATOM     54  C40 UNL A   1      44.518  32.380  27.223  1.00  0.00    +0.000 C 
ATOM     55  F7  UNL A   1      43.546  32.987  26.525  1.00  0.00    +0.000 F 
ATOM     56  C41 UNL A   1      45.819  32.845  27.138  1.00  0.00    +0.000 C 
ATOM     57  F8  UNL A   1      46.107  33.904  26.368  1.00  0.00    +0.000 F 
ATOM     58  C42 UNL A   1      46.816  32.226  27.872  1.00  0.00    +0.000 C 
ATOM     59  F9  UNL A   1      48.070  32.699  27.829  1.00  0.00    +0.000 F 
ATOM     60  C43 UNL A   1      46.519  31.130  28.679  1.00  0.00    +0.000 C 
ATOM     61  F10 UNL A   1      47.509  30.570  29.394  1.00  0.00    +0.000 F 
ENDBRANCH   50   51
BRANCH   65   66
ATOM     66  C47 UNL A   1      43.542  25.184  26.029  1.00  0.00    +0.000 C 
ATOM     67  C48 UNL A   1      44.635  24.928  25.185  1.00  0.00    +0.000 C 
ATOM     68  F11 UNL A   1      45.462  25.924  24.835  1.00  0.00    +0.000 F 
ATOM     69  C49 UNL A   1      44.941  23.632  24.757  1.00  0.00    +0.000 C 
ATOM     70  F12 UNL A   1      46.035  23.415  24.012  1.00  0.00    +0.000 F 
ATOM     71  C50 UNL A   1      44.159  22.560  25.154  1.00  0.00    +0.000 C 
ATOM     72  F13 UNL A   1      44.496  21.310  24.807  1.00  0.00    +0.000 F 
ATOM     73  C51 UNL A   1      43.051  22.786  25.950  1.00  0.00    +0.000 C 
ATOM     74  F14 UNL A   1      42.308  21.752  26.371  1.00  0.00    +0.000 F 
ATOM     75  C52 UNL A   1      42.745  24.078  26.380  1.00  0.00    +0.000 C 
ATOM     76  F15 UNL A   1      41.716  24.215  27.227  1.00  0.00    +0.000 F 
ENDBRANCH   65   66
TORSDOF 20
ENDMDL
MODEL 6
REMARK VINA RESULT:     -10.3      4.604      7.504
ROOT
ATOM    129  H39 UNL A   1      41.623  28.860  26.038  1.00  0.00    +0.000 H 
ATOM     29  C23 UNL A   1      41.110  28.102  28.753  1.00  0.00    +0.000 C 
ATOM     30  C24 UNL A   1      42.157  29.013  28.238  1.00  0.00    +0.000 C 
ATOM     31  N4  UNL A   1      43.110  29.571  28.906  1.00  0.00    +0.000 N 
ATOM     32  C25 UNL A   1      43.813  30.347  27.989  1.00  0.00    +0.000 C 
ATOM     33  C26 UNL A   1      44.561  31.408  28.396  1.00  0.00    +0.000 C 
ATOM     45  C33 UNL A   1      44.798  31.357  29.817  1.00  0.00    +0.000 C 
ATOM     46  C34 UNL A   1      45.501  30.516  30.656  1.00  0.00    +0.000 C 
ATOM     47  C35 UNL A   1      44.710  30.423  31.840  1.00  0.00    +0.000 C 
ATOM     48  C36 UNL A   1      43.599  31.256  31.690  1.00  0.00    +0.000 C 
ATOM     49  N5  UNL A   1      43.933  32.053  30.624  1.00  0.00    +0.000 N 
ATOM     50  C37 UNL A   1      42.310  31.288  32.345  1.00  0.00    +0.000 C 
ATOM     62  C44 UNL A   1      41.206  31.943  31.875  1.00  0.00    +0.000 C 
ATOM     63  N6  UNL A   1      39.933  31.586  32.299  1.00  0.00    +0.000 N 
ATOM     64  C45 UNL A   1      39.143  31.927  31.316  1.00  0.00    +0.000 C 
ATOM     65  C46 UNL A   1      37.977  31.116  30.882  1.00  0.00    +0.000 C 
ATOM     77  C53 UNL A   1      38.483  29.954  30.402  1.00  0.00    +0.000 C 
ATOM     78  C54 UNL A   1      37.854  28.669  30.211  1.00  0.00    +0.000 C 
ATOM     79  C55 UNL A   1      38.791  27.809  29.763  1.00  0.00    +0.000 C 
ATOM     80  C56 UNL A   1      40.032  28.533  29.448  1.00  0.00    +0.000 C 
ATOM     81  N7  UNL A   1      39.807  29.793  29.944  1.00  0.00    +0.000 N 
ATOM     82  C57 UNL A   1      39.701  32.868  30.361  1.00  0.00    +0.000 C 
ATOM     83  C58 UNL A   1      40.988  32.792  30.708  1.00  0.00    +0.000 C 
ATOM     84  C59 UNL A   1      43.351  29.951  26.684  1.00  0.00    +0.000 C 
ATOM     85  C60 UNL A   1      42.247  29.207  26.783  1.00  0.00    +0.000 C 
ATOM    120  H30 UNL A   1      46.405  30.055  30.467  1.00  0.00    +0.000 H 
ATOM    121  H31 UNL A   1      44.922  29.840  32.666  1.00  0.00    +0.000 H 
ATOM    122  H32 UNL A   1      43.607  32.969  30.464  1.00  0.00    +0.000 H 
ATOM    123  H33 UNL A   1      36.862  28.448  30.386  1.00  0.00    +0.000 H 
ATOM    124  H34 UNL A   1      38.657  26.791  29.657  1.00  0.00    +0.000 H 
ATOM    125  H35 UNL A   1      40.490  30.501  29.975  1.00  0.00    +0.000 H 
ATOM    126  H36 UNL A   1      39.240  33.430  29.629  1.00  0.00    +0.000 H 
ATOM    127  H37 UNL A   1      41.746  33.279  30.205  1.00  0.00    +0.000 H 
ATOM    128  H38 UNL A   1      43.809  30.206  25.796  1.00  0.00    +0.000 H 
ENDROOT
BRANCH   29   28
ATOM    130  H40 UNL A   1      40.294  27.265  26.437  1.00  0.00    +0.000 H 
ATOM    131  H41 UNL A   1      39.682  24.958  25.980  1.00  0.00    +0.000 H 
ATOM     28  C22 UNL A   1      41.201  26.737  28.266  1.00  0.00    +0.000 C 
ATOM     86  C61 UNL A   1      40.592  26.490  27.050  1.00  0.00    +0.000 C 
ATOM     87  C62 UNL A   1      40.397  25.194  26.686  1.00  0.00    +0.000 C 
ATOM    118  H28 UNL A   1      42.442  23.687  28.876  1.00  0.00    +0.000 H 
ATOM     25  C19 UNL A   1      41.160  24.191  27.264  1.00  0.00    +0.000 C 
ATOM     26  C20 UNL A   1      41.893  24.437  28.429  1.00  0.00    +0.000 C 
ATOM     27  C21 UNL A   1      41.864  25.720  28.970  1.00  0.00    +0.000 C 
ATOM    119  H29 UNL A   1      42.321  25.919  29.873  1.00  0.00    +0.000 H 
BRANCH   25   23
ATOM     23  C18 UNL A   1      41.172  22.882  26.583  1.00  0.00    +0.000 C 
ATOM     24  O3  UNL A   1      40.352  22.032  26.863  1.00  0.00    +0.000 O 
BRANCH   23   22
ATOM    117  H27 UNL A   1      41.867  22.840  24.684  1.00  0.00    +0.000 H 
ATOM     22  N3  UNL A   1      42.140  22.661  25.613  1.00  0.00    +0.000 N 
BRANCH   22   21
ATOM    115  H25 UNL A   1      43.539  21.499  26.609  1.00  0.00    +0.000 H 
ATOM    116  H26 UNL A   1      43.834  21.743  24.881  1.00  0.00    +0.000 H 
ATOM     21  C17 UNL A   1      43.518  22.195  25.797  1.00  0.00    +0.000 C 
BRANCH   21   20
ATOM    113  H23 UNL A   1      44.061  23.927  26.887  1.00  0.00    +0.000 H 
ATOM    114  H24 UNL A   1      45.410  22.885  26.394  1.00  0.00    +0.000 H 
ATOM     20  C16 UNL A   1      44.481  23.328  26.105  1.00  0.00    +0.000 C 
BRANCH   20   19
ATOM     19  C15 UNL A   1      44.762  24.231  24.896  1.00  0.00    +0.000 C 
ATOM    111  H21 UNL A   1      45.773  24.062  24.590  1.00  0.00    +0.000 H 
ATOM    112  H22 UNL A   1      44.028  23.963  24.164  1.00  0.00    +0.000 H 
BRANCH   19   18
ATOM     18  C14 UNL A   1      44.585  25.743  25.118  1.00  0.00    +0.000 C 
ATOM    109  H19 UNL A   1      45.438  26.240  24.705  1.00  0.00    +0.000 H 
ATOM    110  H20 UNL A   1      43.664  26.007  24.644  1.00  0.00    +0.000 H 
BRANCH   18   17
ATOM     17  C13 UNL A   1      44.450  26.173  26.581  1.00  0.00    +0.000 C 
ATOM    107  H17 UNL A   1      43.491  26.630  26.713  1.00  0.00    +0.000 H 
ATOM    108  H18 UNL A   1      44.562  25.295  27.182  1.00  0.00    +0.000 H 
BRANCH   17   16
ATOM    105  H15 UNL A   1      45.305  28.130  26.614  1.00  0.00    +0.000 H 
ATOM    106  H16 UNL A   1      45.540  27.211  28.090  1.00  0.00    +0.000 H 
ATOM     16  C12 UNL A   1      45.526  27.166  27.022  1.00  0.00    +0.000 C 
BRANCH   16   15
ATOM     15  N2  UNL A   1      46.826  26.742  26.556  1.00  0.00    +0.000 N 
ATOM    104  H14 UNL A   1      47.264  27.373  25.942  1.00  0.00    +0.000 H 
BRANCH   15   13
ATOM     13  C11 UNL A   1      47.544  25.621  26.819  1.00  0.00    +0.000 C 
ATOM     14  O2  UNL A   1      48.214  25.151  25.896  1.00  0.00    +0.000 O 
BRANCH   13   12
ATOM     12  C10 UNL A   1      47.453  24.894  28.148  1.00  0.00    +0.000 C 
ATOM    102  H12 UNL A   1      46.941  23.974  27.958  1.00  0.00    +0.000 H 
ATOM    103  H13 UNL A   1      48.475  24.844  28.463  1.00  0.00    +0.000 H 
BRANCH   12   11
ATOM     11  C9  UNL A   1      46.757  25.543  29.350  1.00  0.00    +0.000 C 
ATOM    100  H10 UNL A   1      47.482  25.572  30.136  1.00  0.00    +0.000 H 
ATOM    101  H11 UNL A   1      46.403  26.463  28.932  1.00  0.00    +0.000 H 
BRANCH   11   10
ATOM     10  C8  UNL A   1      45.475  24.958  29.968  1.00  0.00    +0.000 C 
ATOM     99  H9  UNL A   1      45.757  23.947  30.175  1.00  0.00    +0.000 H 
ATOM     98  H8  UNL A   1      44.691  25.133  29.262  1.00  0.00    +0.000 H 
BRANCH   10    9
ATOM      2  C2  UNL A   1      44.900  26.404  35.879  1.00  0.00    +0.000 C 
ATOM      3  C3  UNL A   1      44.128  25.233  35.903  1.00  0.00    +0.000 C 
ATOM      4  C4  UNL A   1      43.838  24.557  34.705  1.00  0.00    +0.000 C 
ATOM      6  C6  UNL A   1      44.389  25.077  33.541  1.00  0.00    +0.000 C 
ATOM      7  C7  UNL A   1      44.415  24.518  32.170  1.00  0.00    +0.000 C 
ATOM      8  O1  UNL A   1      44.075  23.368  31.924  1.00  0.00    +0.000 O 
ATOM      9  N1  UNL A   1      44.980  25.423  31.261  1.00  0.00    +0.000 N 
ATOM     88  S1  UNL A   1      45.492  26.880  32.002  1.00  0.00    +0.000 S 
ATOM     89  C63 UNL A   1      45.074  26.273  33.606  1.00  0.00    +0.000 C 
ATOM     90  N8  UNL A   1      45.366  26.947  34.732  1.00  0.00    +0.000 N 
ATOM     94  H4  UNL A   1      43.774  24.868  36.802  1.00  0.00    +0.000 H 
BRANCH    2    1
ATOM      1  C1  UNL A   1      45.280  27.107  37.148  1.00  0.00    +0.000 C 
ATOM     91  H1  UNL A   1      44.781  28.053  37.195  1.00  0.00    +0.000 H 
ATOM     92  H2  UNL A   1      46.338  27.260  37.169  1.00  0.00    +0.000 H 
ATOM     93  H3  UNL A   1      44.990  26.509  37.988  1.00  0.00    +0.000 H 
ENDBRANCH    2    1
BRANCH    4    5
ATOM     97  H7  UNL A   1      42.039  23.584  35.221  1.00  0.00    +0.000 H 
ATOM      5  C5  UNL A   1      42.945  23.357  34.700  1.00  0.00    +0.000 C 
ATOM     95  H5  UNL A   1      43.440  22.541  35.184  1.00  0.00    +0.000 H 
ATOM     96  H6  UNL A   1      42.717  23.086  33.689  1.00  0.00    +0.000 H 
ENDBRANCH    4    5
ENDBRANCH   10    9
ENDBRANCH   11   10
ENDBRANCH   12   11
ENDBRANCH   13   12
ENDBRANCH   15   13
ENDBRANCH   16   15
ENDBRANCH   17   16
ENDBRANCH   18   17
ENDBRANCH   19   18
ENDBRANCH   20   19
ENDBRANCH   21   20
ENDBRANCH   22   21
ENDBRANCH   23   22
ENDBRANCH   25   23
ENDBRANCH   29   28
BRANCH   33   34
ATOM     34  C27 UNL A   1      44.792  32.659  27.585  1.00  0.00    +0.000 C 
ATOM     35  C28 UNL A   1      45.989  32.796  26.854  1.00  0.00    +0.000 C 
ATOM     36  F1  UNL A   1      46.815  31.753  26.693  1.00  0.00    +0.000 F 
ATOM     37  C29 UNL A   1      46.403  34.029  26.338  1.00  0.00    +0.000 C 
ATOM     38  F2  UNL A   1      47.600  34.133  25.747  1.00  0.00    +0.000 F 
ATOM     39  C30 UNL A   1      45.612  35.154  26.485  1.00  0.00    +0.000 C 
ATOM     40  F3  UNL A   1      46.029  36.344  26.036  1.00  0.00    +0.000 F 
ATOM     41  C31 UNL A   1      44.407  35.048  27.147  1.00  0.00    +0.000 C 
ATOM     42  F4  UNL A   1      43.636  36.130  27.317  1.00  0.00    +0.000 F 
ATOM     43  C32 UNL A   1      44.019  33.833  27.710  1.00  0.00    +0.000 C 
ATOM     44  F5  UNL A   1      42.915  33.885  28.466  1.00  0.00    +0.000 F 
ENDBRANCH   33   34
BRANCH   50   51
ATOM     51  C38 UNL A   1      42.119  30.356  33.517  1.00  0.00    +0.000 C 
ATOM     52  C39 UNL A   1      41.884  28.974  33.396  1.00  0.00    +0.000 C 
ATOM     53  F6  UNL A   1      41.765  28.402  32.192  1.00  0.00    +0.000 F 
ATOM     54  C40 UNL A   1      41.821  28.144  34.517  1.00  0.00    +0.000 C 
ATOM     55  F7  UNL A   1      41.586  26.832  34.371  1.00  0.00    +0.000 F 
ATOM     56  C41 UNL A   1      42.036  28.669  35.780  1.00  0.00    +0.000 C 
ATOM     57  F8  UNL A   1      42.019  27.868  36.855  1.00  0.00    +0.000 F 
ATOM     58  C42 UNL A   1      42.295  30.022  35.924  1.00  0.00    +0.000 C 
ATOM     59  F9  UNL A   1      42.548  30.527  37.139  1.00  0.00    +0.000 F 
ATOM     60  C43 UNL A   1      42.321  30.856  34.809  1.00  0.00    +0.000 C 
ATOM     61  F10 UNL A   1      42.598  32.158  34.987  1.00  0.00    +0.000 F 
ENDBRANCH   50   51
BRANCH   65   66
ATOM     66  C47 UNL A   1      36.651  31.715  30.604  1.00  0.00    +0.000 C 
ATOM     67  C48 UNL A   1      35.806  32.097  31.660  1.00  0.00    +0.000 C 
ATOM     68  F11 UNL A   1      36.069  31.692  32.911  1.00  0.00    +0.000 F 
ATOM     69  C49 UNL A   1      34.730  32.967  31.458  1.00  0.00    +0.000 C 
ATOM     70  F12 UNL A   1      33.990  33.367  32.502  1.00  0.00    +0.000 F 
ATOM     71  C50 UNL A   1      34.464  33.471  30.195  1.00  0.00    +0.000 C 
ATOM     72  F13 UNL A   1      33.480  34.363  30.016  1.00  0.00    +0.000 F 
ATOM     73  C51 UNL A   1      35.252  33.080  29.128  1.00  0.00    +0.000 C 
ATOM     74  F14 UNL A   1      35.026  33.590  27.908  1.00  0.00    +0.000 F 
ATOM     75  C52 UNL A   1      36.328  32.214  29.328  1.00  0.00    +0.000 C 
ATOM     76  F15 UNL A   1      37.108  31.952  28.270  1.00  0.00    +0.000 F 
ENDBRANCH   65   66
TORSDOF 20
ENDMDL
MODEL 7
REMARK VINA RESULT:     -10.2      1.275      3.131
ROOT
ATOM    129  H39 UNL A   1      41.276  28.546  26.076  1.00  0.00    +0.000 H 
ATOM     29  C23 UNL A   1      40.688  27.911  28.808  1.00  0.00    +0.000 C 
ATOM     30  C24 UNL A   1      41.894  28.572  28.260  1.00  0.00    +0.000 C 
ATOM     31  N4  UNL A   1      42.964  28.907  28.898  1.00  0.00    +0.000 N 
ATOM     32  C25 UNL A   1      43.793  29.513  27.959  1.00  0.00    +0.000 C 
ATOM     33  C26 UNL A   1      44.766  30.384  28.341  1.00  0.00    +0.000 C 
ATOM     45  C33 UNL A   1      45.027  30.278  29.754  1.00  0.00    +0.000 C 
ATOM     46  C34 UNL A   1      45.553  29.302  30.576  1.00  0.00    +0.000 C 
ATOM     47  C35 UNL A   1      44.795  29.381  31.782  1.00  0.00    +0.000 C 
ATOM     48  C36 UNL A   1      43.890  30.437  31.661  1.00  0.00    +0.000 C 
ATOM     49  N5  UNL A   1      44.358  31.145  30.584  1.00  0.00    +0.000 N 
ATOM     50  C37 UNL A   1      42.657  30.748  32.353  1.00  0.00    +0.000 C 
ATOM     62  C44 UNL A   1      41.710  31.629  31.912  1.00  0.00    +0.000 C 
ATOM     63  N6  UNL A   1      40.402  31.558  32.374  1.00  0.00    +0.000 N 
ATOM     64  C45 UNL A   1      39.679  32.066  31.413  1.00  0.00    +0.000 C 
ATOM     65  C46 UNL A   1      38.351  31.531  31.014  1.00  0.00    +0.000 C 
ATOM     77  C53 UNL A   1      38.578  30.288  30.524  1.00  0.00    +0.000 C 
ATOM     78  C54 UNL A   1      37.677  29.172  30.356  1.00  0.00    +0.000 C 
ATOM     79  C55 UNL A   1      38.391  28.130  29.885  1.00  0.00    +0.000 C 
ATOM     80  C56 UNL A   1      39.750  28.565  29.532  1.00  0.00    +0.000 C 
ATOM     81  N7  UNL A   1      39.820  29.843  30.029  1.00  0.00    +0.000 N 
ATOM     82  C57 UNL A   1      40.401  32.865  30.439  1.00  0.00    +0.000 C 
ATOM     83  C58 UNL A   1      41.650  32.509  30.748  1.00  0.00    +0.000 C 
ATOM     84  C59 UNL A   1      43.218  29.231  26.669  1.00  0.00    +0.000 C 
ATOM     85  C60 UNL A   1      41.982  28.746  26.802  1.00  0.00    +0.000 C 
ATOM    120  H30 UNL A   1      46.328  28.655  30.363  1.00  0.00    +0.000 H 
ATOM    121  H31 UNL A   1      44.898  28.764  32.604  1.00  0.00    +0.000 H 
ATOM    122  H32 UNL A   1      44.236  32.110  30.430  1.00  0.00    +0.000 H 
ATOM    123  H33 UNL A   1      36.666  29.172  30.560  1.00  0.00    +0.000 H 
ATOM    124  H34 UNL A   1      38.034  27.165  29.786  1.00  0.00    +0.000 H 
ATOM    125  H35 UNL A   1      40.642  30.384  30.038  1.00  0.00    +0.000 H 
ATOM    126  H36 UNL A   1      40.053  33.516  29.718  1.00  0.00    +0.000 H 
ATOM    127  H37 UNL A   1      42.481  32.820  30.222  1.00  0.00    +0.000 H 
ATOM    128  H38 UNL A   1      43.696  29.382  25.767  1.00  0.00    +0.000 H 
ENDROOT
BRANCH   29   28
ATOM    130  H40 UNL A   1      41.978  25.795  29.575  1.00  0.00    +0.000 H 
ATOM    131  H41 UNL A   1      42.199  23.790  28.219  1.00  0.00    +0.000 H 
ATOM     28  C22 UNL A   1      40.464  26.561  28.323  1.00  0.00    +0.000 C 
ATOM     86  C61 UNL A   1      41.350  25.602  28.779  1.00  0.00    +0.000 C 
ATOM     87  C62 UNL A   1      41.369  24.398  28.146  1.00  0.00    +0.000 C 
ATOM    118  H28 UNL A   1      38.481  24.615  26.453  1.00  0.00    +0.000 H 
ATOM     25  C19 UNL A   1      40.271  23.991  27.403  1.00  0.00    +0.000 C 
ATOM     26  C20 UNL A   1      39.287  24.909  27.027  1.00  0.00    +0.000 C 
ATOM     27  C21 UNL A   1      39.419  26.230  27.447  1.00  0.00    +0.000 C 
ATOM    119  H29 UNL A   1      38.760  26.954  27.120  1.00  0.00    +0.000 H 
BRANCH   25   23
ATOM     23  C18 UNL A   1      40.193  22.559  27.056  1.00  0.00    +0.000 C 
ATOM     24  O3  UNL A   1      41.050  21.785  27.428  1.00  0.00    +0.000 O 
BRANCH   23   22
ATOM    117  H27 UNL A   1      38.329  22.732  26.289  1.00  0.00    +0.000 H 
ATOM     22  N3  UNL A   1      39.108  22.130  26.303  1.00  0.00    +0.000 N 
BRANCH   22   21
ATOM    115  H25 UNL A   1      39.612  20.957  24.669  1.00  0.00    +0.000 H 
ATOM    116  H26 UNL A   1      39.251  20.079  26.163  1.00  0.00    +0.000 H 
ATOM     21  C17 UNL A   1      38.976  20.893  25.527  1.00  0.00    +0.000 C 
BRANCH   21   20
ATOM    113  H23 UNL A   1      37.499  20.867  24.011  1.00  0.00    +0.000 H 
ATOM    114  H24 UNL A   1      37.322  19.625  25.266  1.00  0.00    +0.000 H 
ATOM     20  C16 UNL A   1      37.553  20.648  25.057  1.00  0.00    +0.000 C 
BRANCH   20   19
ATOM     19  C15 UNL A   1      36.516  21.510  25.791  1.00  0.00    +0.000 C 
ATOM    111  H21 UNL A   1      36.074  20.908  26.557  1.00  0.00    +0.000 H 
ATOM    112  H22 UNL A   1      37.057  22.359  26.154  1.00  0.00    +0.000 H 
BRANCH   19   18
ATOM     18  C14 UNL A   1      35.378  22.086  24.932  1.00  0.00    +0.000 C 
ATOM    109  H19 UNL A   1      35.253  21.452  24.078  1.00  0.00    +0.000 H 
ATOM    110  H20 UNL A   1      34.517  22.125  25.565  1.00  0.00    +0.000 H 
BRANCH   18   17
ATOM     17  C13 UNL A   1      35.602  23.516  24.430  1.00  0.00    +0.000 C 
ATOM    107  H17 UNL A   1      35.196  24.195  25.150  1.00  0.00    +0.000 H 
ATOM    108  H18 UNL A   1      36.657  23.646  24.305  1.00  0.00    +0.000 H 
BRANCH   17   16
ATOM    105  H15 UNL A   1      35.639  24.312  22.449  1.00  0.00    +0.000 H 
ATOM    106  H16 UNL A   1      34.671  22.860  22.629  1.00  0.00    +0.000 H 
ATOM     16  C12 UNL A   1      34.947  23.791  23.076  1.00  0.00    +0.000 C 
BRANCH   16   15
ATOM     15  N2  UNL A   1      33.761  24.598  23.244  1.00  0.00    +0.000 N 
ATOM    104  H14 UNL A   1      33.931  25.507  23.579  1.00  0.00    +0.000 H 
BRANCH   15   13
ATOM     13  C11 UNL A   1      32.452  24.316  23.022  1.00  0.00    +0.000 C 
ATOM     14  O2  UNL A   1      31.845  25.044  22.233  1.00  0.00    +0.000 O 
BRANCH   13   12
ATOM     12  C10 UNL A   1      31.717  23.230  23.785  1.00  0.00    +0.000 C 
ATOM    102  H12 UNL A   1      30.672  23.399  23.626  1.00  0.00    +0.000 H 
ATOM    103  H13 UNL A   1      32.145  22.331  23.394  1.00  0.00    +0.000 H 
BRANCH   12   11
ATOM     11  C9  UNL A   1      31.909  23.070  25.299  1.00  0.00    +0.000 C 
ATOM    100  H10 UNL A   1      31.142  22.399  25.627  1.00  0.00    +0.000 H 
ATOM    101  H11 UNL A   1      32.932  22.764  25.362  1.00  0.00    +0.000 H 
BRANCH   11   10
ATOM     10  C8  UNL A   1      31.873  24.270  26.260  1.00  0.00    +0.000 C 
ATOM     99  H9  UNL A   1      32.901  24.561  26.310  1.00  0.00    +0.000 H 
ATOM     98  H8  UNL A   1      31.398  23.927  27.155  1.00  0.00    +0.000 H 
BRANCH   10    9
ATOM      2  C2  UNL A   1      29.513  28.994  23.181  1.00  0.00    +0.000 C 
ATOM      3  C3  UNL A   1      30.657  29.645  23.662  1.00  0.00    +0.000 C 
ATOM      4  C4  UNL A   1      31.510  28.992  24.570  1.00  0.00    +0.000 C 
ATOM      6  C6  UNL A   1      31.184  27.683  24.907  1.00  0.00    +0.000 C 
ATOM      7  C7  UNL A   1      31.951  26.684  25.685  1.00  0.00    +0.000 C 
ATOM      8  O1  UNL A   1      33.122  26.856  25.999  1.00  0.00    +0.000 O 
ATOM      9  N1  UNL A   1      31.205  25.515  25.888  1.00  0.00    +0.000 N 
ATOM     88  S1  UNL A   1      29.656  25.578  25.161  1.00  0.00    +0.000 S 
ATOM     89  C63 UNL A   1      29.999  27.151  24.440  1.00  0.00    +0.000 C 
ATOM     90  N8  UNL A   1      29.161  27.749  23.576  1.00  0.00    +0.000 N 
ATOM     94  H4  UNL A   1      30.874  30.605  23.350  1.00  0.00    +0.000 H 
BRANCH    2    1
ATOM      1  C1  UNL A   1      28.623  29.642  22.162  1.00  0.00    +0.000 C 
ATOM     91  H1  UNL A   1      29.124  30.489  21.741  1.00  0.00    +0.000 H 
ATOM     92  H2  UNL A   1      27.716  29.960  22.630  1.00  0.00    +0.000 H 
ATOM     93  H3  UNL A   1      28.397  28.940  21.387  1.00  0.00    +0.000 H 
ENDBRANCH    2    1
BRANCH    4    5
ATOM     97  H7  UNL A   1      32.362  30.612  25.618  1.00  0.00    +0.000 H 
ATOM      5  C5  UNL A   1      32.687  29.700  25.162  1.00  0.00    +0.000 C 
ATOM     95  H5  UNL A   1      33.395  29.920  24.391  1.00  0.00    +0.000 H 
ATOM     96  H6  UNL A   1      33.145  29.075  25.900  1.00  0.00    +0.000 H 
ENDBRANCH    4    5
ENDBRANCH   10    9
ENDBRANCH   11   10
ENDBRANCH   12   11
ENDBRANCH   13   12
ENDBRANCH   15   13
ENDBRANCH   16   15
ENDBRANCH   17   16
ENDBRANCH   18   17
ENDBRANCH   19   18
ENDBRANCH   20   19
ENDBRANCH   21   20
ENDBRANCH   22   21
ENDBRANCH   23   22
ENDBRANCH   25   23
ENDBRANCH   29   28
BRANCH   33   34
ATOM     34  C27 UNL A   1      45.241  31.556  27.519  1.00  0.00    +0.000 C 
ATOM     35  C28 UNL A   1      46.580  31.594  27.080  1.00  0.00    +0.000 C 
ATOM     36  F1  UNL A   1      47.367  30.514  27.191  1.00  0.00    +0.000 F 
ATOM     37  C29 UNL A   1      47.164  32.765  26.588  1.00  0.00    +0.000 C 
ATOM     38  F2  UNL A   1      48.469  32.781  26.287  1.00  0.00    +0.000 F 
ATOM     39  C30 UNL A   1      46.420  33.925  26.466  1.00  0.00    +0.000 C 
ATOM     40  F3  UNL A   1      46.990  35.059  26.042  1.00  0.00    +0.000 F 
ATOM     41  C31 UNL A   1      45.092  33.914  26.833  1.00  0.00    +0.000 C 
ATOM     42  F4  UNL A   1      44.358  35.031  26.742  1.00  0.00    +0.000 F 
ATOM     43  C32 UNL A   1      44.522  32.762  27.375  1.00  0.00    +0.000 C 
ATOM     44  F5  UNL A   1      43.279  32.912  27.847  1.00  0.00    +0.000 F 
ENDBRANCH   33   34
BRANCH   50   51
ATOM     51  C38 UNL A   1      42.301  29.877  33.533  1.00  0.00    +0.000 C 
ATOM     52  C39 UNL A   1      41.780  28.574  33.424  1.00  0.00    +0.000 C 
ATOM     53  F6  UNL A   1      41.519  28.039  32.225  1.00  0.00    +0.000 F 
ATOM     54  C40 UNL A   1      41.569  27.777  34.549  1.00  0.00    +0.000 C 
ATOM     55  F7  UNL A   1      41.062  26.542  34.415  1.00  0.00    +0.000 F 
ATOM     56  C41 UNL A   1      41.916  28.245  35.805  1.00  0.00    +0.000 C 
ATOM     57  F8  UNL A   1      41.755  27.466  36.884  1.00  0.00    +0.000 F 
ATOM     58  C42 UNL A   1      42.455  29.514  35.937  1.00  0.00    +0.000 C 
ATOM     59  F9  UNL A   1      42.834  29.957  37.144  1.00  0.00    +0.000 F 
ATOM     60  C43 UNL A   1      42.631  30.325  34.818  1.00  0.00    +0.000 C 
ATOM     61  F10 UNL A   1      43.177  31.540  34.983  1.00  0.00    +0.000 F 
ENDBRANCH   50   51
BRANCH   65   66
ATOM     66  C47 UNL A   1      37.181  32.407  30.773  1.00  0.00    +0.000 C 
ATOM     67  C48 UNL A   1      36.926  32.916  29.490  1.00  0.00    +0.000 C 
ATOM     68  F11 UNL A   1      37.863  32.835  28.534  1.00  0.00    +0.000 F 
ATOM     69  C49 UNL A   1      35.675  33.440  29.146  1.00  0.00    +0.000 C 
ATOM     70  F12 UNL A   1      35.444  33.850  27.890  1.00  0.00    +0.000 F 
ATOM     71  C50 UNL A   1      34.650  33.477  30.077  1.00  0.00    +0.000 C 
ATOM     72  F13 UNL A   1      33.431  33.908  29.727  1.00  0.00    +0.000 F 
ATOM     73  C51 UNL A   1      34.884  33.022  31.362  1.00  0.00    +0.000 C 
ATOM     74  F14 UNL A   1      33.890  33.018  32.262  1.00  0.00    +0.000 F 
ATOM     75  C52 UNL A   1      36.131  32.496  31.707  1.00  0.00    +0.000 C 
ATOM     76  F15 UNL A   1      36.262  31.985  32.938  1.00  0.00    +0.000 F 
ENDBRANCH   65   66
TORSDOF 20
ENDMDL
MODEL 8
REMARK VINA RESULT:     -10.1     34.288     41.194
ROOT
ATOM    129  H39 UNL A   1       6.680  32.304   1.446  1.00  0.00    +0.000 H 
ATOM     29  C23 UNL A   1       8.453  30.105   0.958  1.00  0.00    +0.000 C 
ATOM     30  C24 UNL A   1       7.778  30.975  -0.031  1.00  0.00    +0.000 C 
ATOM     31  N4  UNL A   1       7.779  30.852  -1.316  1.00  0.00    +0.000 N 
ATOM     32  C25 UNL A   1       7.027  31.918  -1.800  1.00  0.00    +0.000 C 
ATOM     33  C26 UNL A   1       7.195  32.374  -3.072  1.00  0.00    +0.000 C 
ATOM     45  C33 UNL A   1       7.918  31.416  -3.872  1.00  0.00    +0.000 C 
ATOM     46  C34 UNL A   1       7.654  30.146  -4.342  1.00  0.00    +0.000 C 
ATOM     47  C35 UNL A   1       8.898  29.452  -4.263  1.00  0.00    +0.000 C 
ATOM     48  C36 UNL A   1       9.869  30.347  -3.807  1.00  0.00    +0.000 C 
ATOM     49  N5  UNL A   1       9.278  31.575  -3.966  1.00  0.00    +0.000 N 
ATOM     50  C37 UNL A   1      11.160  30.151  -3.185  1.00  0.00    +0.000 C 
ATOM     62  C44 UNL A   1      11.855  31.106  -2.497  1.00  0.00    +0.000 C 
ATOM     63  N6  UNL A   1      12.838  30.752  -1.583  1.00  0.00    +0.000 N 
ATOM     64  C45 UNL A   1      12.875  31.740  -0.729  1.00  0.00    +0.000 C 
ATOM     65  C46 UNL A   1      13.066  31.554   0.732  1.00  0.00    +0.000 C 
ATOM     77  C53 UNL A   1      11.973  30.885   1.174  1.00  0.00    +0.000 C 
ATOM     78  C54 UNL A   1      11.777  30.106   2.373  1.00  0.00    +0.000 C 
ATOM     79  C55 UNL A   1      10.533  29.587   2.333  1.00  0.00    +0.000 C 
ATOM     80  C56 UNL A   1       9.782  30.161   1.206  1.00  0.00    +0.000 C 
ATOM     81  N7  UNL A   1      10.734  30.855   0.502  1.00  0.00    +0.000 N 
ATOM     82  C57 UNL A   1      12.259  32.977  -1.175  1.00  0.00    +0.000 C 
ATOM     83  C58 UNL A   1      11.588  32.518  -2.233  1.00  0.00    +0.000 C 
ATOM     84  C59 UNL A   1       6.355  32.492  -0.663  1.00  0.00    +0.000 C 
ATOM     85  C60 UNL A   1       6.870  32.017   0.473  1.00  0.00    +0.000 C 
ATOM    120  H30 UNL A   1       6.751  29.777  -4.680  1.00  0.00    +0.000 H 
ATOM    121  H31 UNL A   1       9.055  28.459  -4.500  1.00  0.00    +0.000 H 
ATOM    122  H32 UNL A   1       9.749  32.427  -4.120  1.00  0.00    +0.000 H 
ATOM    123  H33 UNL A   1      12.466  29.970   3.128  1.00  0.00    +0.000 H 
ATOM    124  H34 UNL A   1      10.161  28.889   2.997  1.00  0.00    +0.000 H 
ATOM    125  H35 UNL A   1      10.571  31.281  -0.370  1.00  0.00    +0.000 H 
ATOM    126  H36 UNL A   1      12.322  33.931  -0.788  1.00  0.00    +0.000 H 
ATOM    127  H37 UNL A   1      10.950  33.096  -2.802  1.00  0.00    +0.000 H 
ATOM    128  H38 UNL A   1       5.584  33.174  -0.719  1.00  0.00    +0.000 H 
ENDROOT
BRANCH   29   28
ATOM    130  H40 UNL A   1       7.752  27.634   0.593  1.00  0.00    +0.000 H 
ATOM    131  H41 UNL A   1       5.694  26.677   1.463  1.00  0.00    +0.000 H 
ATOM     28  C22 UNL A   1       7.555  29.345   1.809  1.00  0.00    +0.000 C 
ATOM     86  C61 UNL A   1       7.223  28.081   1.358  1.00  0.00    +0.000 C 
ATOM     87  C62 UNL A   1       6.179  27.445   1.954  1.00  0.00    +0.000 C 
ATOM    118  H28 UNL A   1       5.860  29.348   4.697  1.00  0.00    +0.000 H 
ATOM     25  C19 UNL A   1       5.767  27.829   3.221  1.00  0.00    +0.000 C 
ATOM     26  C20 UNL A   1       6.183  29.047   3.765  1.00  0.00    +0.000 C 
ATOM     27  C21 UNL A   1       7.047  29.845   3.018  1.00  0.00    +0.000 C 
ATOM    119  H29 UNL A   1       7.308  30.787   3.347  1.00  0.00    +0.000 H 
BRANCH   25   23
ATOM     23  C18 UNL A   1       4.900  26.889   3.956  1.00  0.00    +0.000 C 
ATOM     24  O3  UNL A   1       3.718  27.121   4.100  1.00  0.00    +0.000 O 
BRANCH   23   22
ATOM    117  H27 UNL A   1       5.024  24.889   4.238  1.00  0.00    +0.000 H 
ATOM     22  N3  UNL A   1       5.477  25.733   4.466  1.00  0.00    +0.000 N 
BRANCH   22   21
ATOM    115  H25 UNL A   1       6.780  26.503   5.884  1.00  0.00    +0.000 H 
ATOM    116  H26 UNL A   1       6.554  24.747   5.920  1.00  0.00    +0.000 H 
ATOM     21  C17 UNL A   1       6.676  25.611   5.302  1.00  0.00    +0.000 C 
BRANCH   21   20
ATOM    113  H23 UNL A   1       8.456  24.555   4.856  1.00  0.00    +0.000 H 
ATOM    114  H24 UNL A   1       7.642  25.296   3.464  1.00  0.00    +0.000 H 
ATOM     20  C16 UNL A   1       7.940  25.416   4.484  1.00  0.00    +0.000 C 
BRANCH   20   19
ATOM     19  C15 UNL A   1       8.892  26.619   4.542  1.00  0.00    +0.000 C 
ATOM    111  H21 UNL A   1       8.482  27.390   3.924  1.00  0.00    +0.000 H 
ATOM    112  H22 UNL A   1       8.962  26.876   5.580  1.00  0.00    +0.000 H 
BRANCH   19   18
ATOM     18  C14 UNL A   1      10.338  26.367   4.084  1.00  0.00    +0.000 C 
ATOM    109  H19 UNL A   1      10.408  26.632   3.049  1.00  0.00    +0.000 H 
ATOM    110  H20 UNL A   1      10.959  26.961   4.720  1.00  0.00    +0.000 H 
BRANCH   18   17
ATOM     17  C13 UNL A   1      10.826  24.924   4.237  1.00  0.00    +0.000 C 
ATOM    107  H17 UNL A   1       9.973  24.279   4.270  1.00  0.00    +0.000 H 
ATOM    108  H18 UNL A   1      11.457  24.712   3.399  1.00  0.00    +0.000 H 
BRANCH   17   16
ATOM    105  H15 UNL A   1      12.295  23.850   5.355  1.00  0.00    +0.000 H 
ATOM    106  H16 UNL A   1      12.243  25.572   5.690  1.00  0.00    +0.000 H 
ATOM     16  C12 UNL A   1      11.658  24.697   5.500  1.00  0.00    +0.000 C 
BRANCH   16   15
ATOM     15  N2  UNL A   1      10.798  24.455   6.634  1.00  0.00    +0.000 N 
ATOM    104  H14 UNL A   1      10.269  23.627   6.575  1.00  0.00    +0.000 H 
BRANCH   15   13
ATOM     13  C11 UNL A   1      10.593  25.173   7.767  1.00  0.00    +0.000 C 
ATOM     14  O2  UNL A   1      11.536  25.261   8.557  1.00  0.00    +0.000 O 
BRANCH   13   12
ATOM     12  C10 UNL A   1       9.237  25.754   8.123  1.00  0.00    +0.000 C 
ATOM    102  H12 UNL A   1       9.418  26.547   8.819  1.00  0.00    +0.000 H 
ATOM    103  H13 UNL A   1       8.828  26.008   7.168  1.00  0.00    +0.000 H 
BRANCH   12   11
ATOM     11  C9  UNL A   1       8.145  24.871   8.740  1.00  0.00    +0.000 C 
ATOM    100  H10 UNL A   1       7.215  25.236   8.357  1.00  0.00    +0.000 H 
ATOM    101  H11 UNL A   1       8.472  23.889   8.468  1.00  0.00    +0.000 H 
BRANCH   11   10
ATOM     10  C8  UNL A   1       7.962  24.738  10.261  1.00  0.00    +0.000 C 
ATOM     99  H9  UNL A   1       8.859  24.240  10.562  1.00  0.00    +0.000 H 
ATOM     98  H8  UNL A   1       7.028  24.239  10.412  1.00  0.00    +0.000 H 
BRANCH   10    9
ATOM      2  C2  UNL A   1       7.602  28.528  15.044  1.00  0.00    +0.000 C 
ATOM      3  C3  UNL A   1       6.334  28.792  14.507  1.00  0.00    +0.000 C 
ATOM      4  C4  UNL A   1       5.961  28.233  13.273  1.00  0.00    +0.000 C 
ATOM      6  C6  UNL A   1       6.880  27.388  12.663  1.00  0.00    +0.000 C 
ATOM      7  C7  UNL A   1       6.731  26.524  11.469  1.00  0.00    +0.000 C 
ATOM      8  O1  UNL A   1       5.646  26.314  10.944  1.00  0.00    +0.000 O 
ATOM      9  N1  UNL A   1       7.945  25.916  11.126  1.00  0.00    +0.000 N 
ATOM     88  S1  UNL A   1       9.221  26.324  12.193  1.00  0.00    +0.000 S 
ATOM     89  C63 UNL A   1       8.130  27.245  13.230  1.00  0.00    +0.000 C 
ATOM     90  N8  UNL A   1       8.520  27.768  14.405  1.00  0.00    +0.000 N 
ATOM     94  H4  UNL A   1       5.673  29.398  15.021  1.00  0.00    +0.000 H 
BRANCH    2    1
ATOM      1  C1  UNL A   1       7.999  29.057  16.390  1.00  0.00    +0.000 C 
ATOM     91  H1  UNL A   1       7.719  30.088  16.464  1.00  0.00    +0.000 H 
ATOM     92  H2  UNL A   1       9.057  28.966  16.512  1.00  0.00    +0.000 H 
ATOM     93  H3  UNL A   1       7.501  28.497  17.155  1.00  0.00    +0.000 H 
ENDBRANCH    2    1
BRANCH    4    5
ATOM     97  H7  UNL A   1       3.895  27.900  13.000  1.00  0.00    +0.000 H 
ATOM      5  C5  UNL A   1       4.647  28.573  12.642  1.00  0.00    +0.000 C 
ATOM     95  H5  UNL A   1       4.728  28.484  11.579  1.00  0.00    +0.000 H 
ATOM     96  H6  UNL A   1       4.378  29.577  12.897  1.00  0.00    +0.000 H 
ENDBRANCH    4    5
ENDBRANCH   10    9
ENDBRANCH   11   10
ENDBRANCH   12   11
ENDBRANCH   13   12
ENDBRANCH   15   13
ENDBRANCH   16   15
ENDBRANCH   17   16
ENDBRANCH   18   17
ENDBRANCH   19   18
ENDBRANCH   20   19
ENDBRANCH   21   20
ENDBRANCH   22   21
ENDBRANCH   23   22
ENDBRANCH   25   23
ENDBRANCH   29   28
BRANCH   33   34
ATOM     34  C27 UNL A   1       7.010  33.807  -3.503  1.00  0.00    +0.000 C 
ATOM     35  C28 UNL A   1       5.948  34.135  -4.369  1.00  0.00    +0.000 C 
ATOM     36  F1  UNL A   1       4.982  33.245  -4.636  1.00  0.00    +0.000 F 
ATOM     37  C29 UNL A   1       5.896  35.360  -5.044  1.00  0.00    +0.000 C 
ATOM     38  F2  UNL A   1       4.927  35.583  -5.941  1.00  0.00    +0.000 F 
ATOM     39  C30 UNL A   1       6.870  36.319  -4.836  1.00  0.00    +0.000 C 
ATOM     40  F3  UNL A   1       6.849  37.471  -5.517  1.00  0.00    +0.000 F 
ATOM     41  C31 UNL A   1       7.896  36.057  -3.953  1.00  0.00    +0.000 C 
ATOM     42  F4  UNL A   1       8.860  36.965  -3.752  1.00  0.00    +0.000 F 
ATOM     43  C32 UNL A   1       7.980  34.817  -3.322  1.00  0.00    +0.000 C 
ATOM     44  F5  UNL A   1       9.099  34.613  -2.618  1.00  0.00    +0.000 F 
ENDBRANCH   33   34
BRANCH   50   51
ATOM     51  C38 UNL A   1      11.671  28.732  -3.110  1.00  0.00    +0.000 C 
ATOM     52  C39 UNL A   1      11.342  27.828  -2.083  1.00  0.00    +0.000 C 
ATOM     53  F6  UNL A   1      10.572  28.207  -1.057  1.00  0.00    +0.000 F 
ATOM     54  C40 UNL A   1      11.759  26.496  -2.124  1.00  0.00    +0.000 C 
ATOM     55  F7  UNL A   1      11.439  25.660  -1.126  1.00  0.00    +0.000 F 
ATOM     56  C41 UNL A   1      12.474  26.027  -3.213  1.00  0.00    +0.000 C 
ATOM     57  F8  UNL A   1      12.839  24.738  -3.275  1.00  0.00    +0.000 F 
ATOM     58  C42 UNL A   1      12.788  26.890  -4.249  1.00  0.00    +0.000 C 
ATOM     59  F9  UNL A   1      13.441  26.432  -5.326  1.00  0.00    +0.000 F 
ATOM     60  C43 UNL A   1      12.404  28.228  -4.192  1.00  0.00    +0.000 C 
ATOM     61  F10 UNL A   1      12.707  29.029  -5.226  1.00  0.00    +0.000 F 
ENDBRANCH   50   51
BRANCH   65   66
ATOM     66  C47 UNL A   1      14.010  32.380   1.521  1.00  0.00    +0.000 C 
ATOM     67  C48 UNL A   1      15.397  32.216   1.371  1.00  0.00    +0.000 C 
ATOM     68  F11 UNL A   1      15.882  31.150   0.718  1.00  0.00    +0.000 F 
ATOM     69  C49 UNL A   1      16.300  33.187   1.816  1.00  0.00    +0.000 C 
ATOM     70  F12 UNL A   1      17.613  33.032   1.590  1.00  0.00    +0.000 F 
ATOM     71  C50 UNL A   1      15.842  34.341   2.430  1.00  0.00    +0.000 C 
ATOM     72  F13 UNL A   1      16.702  35.305   2.788  1.00  0.00    +0.000 F 
ATOM     73  C51 UNL A   1      14.485  34.511   2.631  1.00  0.00    +0.000 C 
ATOM     74  F14 UNL A   1      14.027  35.641   3.191  1.00  0.00    +0.000 F 
ATOM     75  C52 UNL A   1      13.581  33.545   2.185  1.00  0.00    +0.000 C 
ATOM     76  F15 UNL A   1      12.276  33.816   2.324  1.00  0.00    +0.000 F 
ENDBRANCH   65   66
TORSDOF 20
ENDMDL
MODEL 9
REMARK VINA RESULT:     -10.1      3.318      8.985
ROOT
ATOM    129  H39 UNL A   1      38.702  27.282  31.896  1.00  0.00    +0.000 H 
ATOM     29  C23 UNL A   1      40.225  28.494  29.793  1.00  0.00    +0.000 C 
ATOM     30  C24 UNL A   1      40.620  28.279  31.204  1.00  0.00    +0.000 C 
ATOM     31  N4  UNL A   1      41.696  28.684  31.789  1.00  0.00    +0.000 N 
ATOM     32  C25 UNL A   1      41.617  28.216  33.097  1.00  0.00    +0.000 C 
ATOM     33  C26 UNL A   1      42.738  28.045  33.849  1.00  0.00    +0.000 C 
ATOM     45  C33 UNL A   1      43.862  28.732  33.264  1.00  0.00    +0.000 C 
ATOM     46  C34 UNL A   1      44.187  30.056  33.049  1.00  0.00    +0.000 C 
ATOM     47  C35 UNL A   1      44.852  30.076  31.786  1.00  0.00    +0.000 C 
ATOM     48  C36 UNL A   1      44.953  28.761  31.325  1.00  0.00    +0.000 C 
ATOM     49  N5  UNL A   1      44.681  28.005  32.437  1.00  0.00    +0.000 N 
ATOM     50  C37 UNL A   1      45.161  28.205  30.006  1.00  0.00    +0.000 C 
ATOM     62  C44 UNL A   1      44.913  26.908  29.652  1.00  0.00    +0.000 C 
ATOM     63  N6  UNL A   1      44.718  26.558  28.322  1.00  0.00    +0.000 N 
ATOM     64  C45 UNL A   1      43.967  25.490  28.362  1.00  0.00    +0.000 C 
ATOM     65  C46 UNL A   1      42.870  25.223  27.397  1.00  0.00    +0.000 C 
ATOM     77  C53 UNL A   1      41.941  26.188  27.605  1.00  0.00    +0.000 C 
ATOM     78  C54 UNL A   1      40.885  26.668  26.746  1.00  0.00    +0.000 C 
ATOM     79  C55 UNL A   1      40.264  27.684  27.379  1.00  0.00    +0.000 C 
ATOM     80  C56 UNL A   1      40.750  27.791  28.763  1.00  0.00    +0.000 C 
ATOM     81  N7  UNL A   1      41.818  26.928  28.799  1.00  0.00    +0.000 N 
ATOM     82  C57 UNL A   1      43.920  24.804  29.641  1.00  0.00    +0.000 C 
ATOM     83  C58 UNL A   1      44.458  25.749  30.415  1.00  0.00    +0.000 C 
ATOM     84  C59 UNL A   1      40.264  27.758  33.283  1.00  0.00    +0.000 C 
ATOM     85  C60 UNL A   1      39.633  27.671  32.110  1.00  0.00    +0.000 C 
ATOM    120  H30 UNL A   1      43.992  30.858  33.667  1.00  0.00    +0.000 H 
ATOM    121  H31 UNL A   1      45.198  30.916  31.297  1.00  0.00    +0.000 H 
ATOM    122  H32 UNL A   1      45.016  27.095  32.612  1.00  0.00    +0.000 H 
ATOM    123  H33 UNL A   1      40.647  26.299  25.813  1.00  0.00    +0.000 H 
ATOM    124  H34 UNL A   1      39.551  28.298  26.954  1.00  0.00    +0.000 H 
ATOM    125  H35 UNL A   1      42.425  26.838  29.568  1.00  0.00    +0.000 H 
ATOM    126  H36 UNL A   1      43.572  23.863  29.882  1.00  0.00    +0.000 H 
ATOM    127  H37 UNL A   1      44.542  25.671  31.441  1.00  0.00    +0.000 H 
ATOM    128  H38 UNL A   1      39.841  27.530  34.196  1.00  0.00    +0.000 H 
ENDROOT
BRANCH   29   28
ATOM    130  H40 UNL A   1      40.295  31.057  29.402  1.00  0.00    +0.000 H 
ATOM    131  H41 UNL A   1      38.452  32.550  29.937  1.00  0.00    +0.000 H 
ATOM     28  C22 UNL A   1      39.070  29.354  29.612  1.00  0.00    +0.000 C 
ATOM     86  C61 UNL A   1      39.333  30.709  29.541  1.00  0.00    +0.000 C 
ATOM     87  C62 UNL A   1      38.286  31.570  29.660  1.00  0.00    +0.000 C 
ATOM    118  H28 UNL A   1      35.749  29.428  29.185  1.00  0.00    +0.000 H 
ATOM     25  C19 UNL A   1      36.996  31.128  29.408  1.00  0.00    +0.000 C 
ATOM     26  C20 UNL A   1      36.712  29.761  29.347  1.00  0.00    +0.000 C 
ATOM     27  C21 UNL A   1      37.761  28.859  29.511  1.00  0.00    +0.000 C 
ATOM    119  H29 UNL A   1      37.578  27.844  29.558  1.00  0.00    +0.000 H 
BRANCH   25   23
ATOM     23  C18 UNL A   1      35.966  32.161  29.191  1.00  0.00    +0.000 C 
ATOM     24  O3  UNL A   1      35.760  33.015  30.028  1.00  0.00    +0.000 O 
BRANCH   23   22
ATOM    117  H27 UNL A   1      35.776  32.264  27.179  1.00  0.00    +0.000 H 
ATOM     22  N3  UNL A   1      35.251  32.128  28.001  1.00  0.00    +0.000 N 
BRANCH   22   21
ATOM    115  H25 UNL A   1      33.372  31.690  28.762  1.00  0.00    +0.000 H 
ATOM    116  H26 UNL A   1      33.404  32.811  27.392  1.00  0.00    +0.000 H 
ATOM     21  C17 UNL A   1      33.812  31.916  27.813  1.00  0.00    +0.000 C 
BRANCH   21   20
ATOM    113  H23 UNL A   1      33.125  31.192  25.946  1.00  0.00    +0.000 H 
ATOM    114  H24 UNL A   1      34.425  30.245  26.697  1.00  0.00    +0.000 H 
ATOM     20  C16 UNL A   1      33.511  30.778  26.855  1.00  0.00    +0.000 C 
BRANCH   20   19
ATOM     19  C15 UNL A   1      32.487  29.775  27.407  1.00  0.00    +0.000 C 
ATOM    111  H21 UNL A   1      32.960  29.226  28.194  1.00  0.00    +0.000 H 
ATOM    112  H22 UNL A   1      31.651  30.366  27.720  1.00  0.00    +0.000 H 
BRANCH   19   18
ATOM     18  C14 UNL A   1      31.918  28.760  26.403  1.00  0.00    +0.000 C 
ATOM    109  H19 UNL A   1      30.855  28.729  26.529  1.00  0.00    +0.000 H 
ATOM    110  H20 UNL A   1      32.224  29.095  25.434  1.00  0.00    +0.000 H 
BRANCH   18   17
ATOM     17  C13 UNL A   1      32.452  27.332  26.548  1.00  0.00    +0.000 C 
ATOM    107  H17 UNL A   1      32.948  27.250  27.493  1.00  0.00    +0.000 H 
ATOM    108  H18 UNL A   1      31.614  26.671  26.476  1.00  0.00    +0.000 H 
BRANCH   17   16
ATOM    105  H15 UNL A   1      32.891  26.586  24.596  1.00  0.00    +0.000 H 
ATOM    106  H16 UNL A   1      34.019  27.796  25.180  1.00  0.00    +0.000 H 
ATOM     16  C12 UNL A   1      33.436  26.939  25.446  1.00  0.00    +0.000 C 
BRANCH   16   15
ATOM     15  N2  UNL A   1      34.322  25.897  25.907  1.00  0.00    +0.000 N 
ATOM    104  H14 UNL A   1      35.034  26.206  26.512  1.00  0.00    +0.000 H 
BRANCH   15   13
ATOM     13  C11 UNL A   1      34.342  24.565  25.650  1.00  0.00    +0.000 C 
ATOM     14  O2  UNL A   1      33.872  23.817  26.511  1.00  0.00    +0.000 O 
BRANCH   13   12
ATOM     12  C10 UNL A   1      35.011  23.989  24.416  1.00  0.00    +0.000 C 
ATOM    102  H12 UNL A   1      34.892  24.713  23.637  1.00  0.00    +0.000 H 
ATOM    103  H13 UNL A   1      36.004  23.780  24.759  1.00  0.00    +0.000 H 
BRANCH   12   11
ATOM     11  C9  UNL A   1      34.559  22.643  23.835  1.00  0.00    +0.000 C 
ATOM    100  H10 UNL A   1      35.209  22.441  23.010  1.00  0.00    +0.000 H 
ATOM    101  H11 UNL A   1      34.594  22.007  24.695  1.00  0.00    +0.000 H 
BRANCH   11   10
ATOM     10  C8  UNL A   1      33.127  22.412  23.324  1.00  0.00    +0.000 C 
ATOM     99  H9  UNL A   1      32.636  22.001  24.181  1.00  0.00    +0.000 H 
ATOM     98  H8  UNL A   1      33.213  21.805  22.447  1.00  0.00    +0.000 H 
BRANCH   10    9
ATOM      2  C2  UNL A   1      30.673  27.968  22.640  1.00  0.00    +0.000 C 
ATOM      3  C3  UNL A   1      29.819  27.517  23.656  1.00  0.00    +0.000 C 
ATOM      4  C4  UNL A   1      29.896  26.185  24.101  1.00  0.00    +0.000 C 
ATOM      6  C6  UNL A   1      30.875  25.386  23.523  1.00  0.00    +0.000 C 
ATOM      7  C7  UNL A   1      31.320  24.020  23.882  1.00  0.00    +0.000 C 
ATOM      8  O1  UNL A   1      30.964  23.465  24.913  1.00  0.00    +0.000 O 
ATOM      9  N1  UNL A   1      32.263  23.534  22.967  1.00  0.00    +0.000 N 
ATOM     88  S1  UNL A   1      32.638  24.663  21.734  1.00  0.00    +0.000 S 
ATOM     89  C63 UNL A   1      31.620  25.896  22.480  1.00  0.00    +0.000 C 
ATOM     90  N8  UNL A   1      31.569  27.161  22.028  1.00  0.00    +0.000 N 
ATOM     94  H4  UNL A   1      29.134  28.164  24.079  1.00  0.00    +0.000 H 
BRANCH    2    1
ATOM      1  C1  UNL A   1      30.657  29.400  22.194  1.00  0.00    +0.000 C 
ATOM     91  H1  UNL A   1      29.681  29.811  22.351  1.00  0.00    +0.000 H 
ATOM     92  H2  UNL A   1      30.904  29.454  21.155  1.00  0.00    +0.000 H 
ATOM     93  H3  UNL A   1      31.374  29.958  22.761  1.00  0.00    +0.000 H 
ENDBRANCH    2    1
BRANCH    4    5
ATOM     97  H7  UNL A   1      29.455  25.484  26.041  1.00  0.00    +0.000 H 
ATOM      5  C5  UNL A   1      28.936  25.661  25.122  1.00  0.00    +0.000 C 
ATOM     95  H5  UNL A   1      28.508  24.745  24.772  1.00  0.00    +0.000 H 
ATOM     96  H6  UNL A   1      28.159  26.380  25.283  1.00  0.00    +0.000 H 
ENDBRANCH    4    5
ENDBRANCH   10    9
ENDBRANCH   11   10
ENDBRANCH   12   11
ENDBRANCH   13   12
ENDBRANCH   15   13
ENDBRANCH   16   15
ENDBRANCH   17   16
ENDBRANCH   18   17
ENDBRANCH   19   18
ENDBRANCH   20   19
ENDBRANCH   21   20
ENDBRANCH   22   21
ENDBRANCH   23   22
ENDBRANCH   25   23
ENDBRANCH   29   28
BRANCH   33   34
ATOM     34  C27 UNL A   1      42.903  26.993  34.918  1.00  0.00    +0.000 C 
ATOM     35  C28 UNL A   1      43.065  27.392  36.259  1.00  0.00    +0.000 C 
ATOM     36  F1  UNL A   1      42.854  28.664  36.626  1.00  0.00    +0.000 F 
ATOM     37  C29 UNL A   1      43.522  26.509  37.243  1.00  0.00    +0.000 C 
ATOM     38  F2  UNL A   1      43.766  26.960  38.480  1.00  0.00    +0.000 F 
ATOM     39  C30 UNL A   1      43.781  25.186  36.935  1.00  0.00    +0.000 C 
ATOM     40  F3  UNL A   1      44.266  24.352  37.863  1.00  0.00    +0.000 F 
ATOM     41  C31 UNL A   1      43.583  24.744  35.645  1.00  0.00    +0.000 C 
ATOM     42  F4  UNL A   1      43.847  23.471  35.321  1.00  0.00    +0.000 F 
ATOM     43  C32 UNL A   1      43.180  25.635  34.651  1.00  0.00    +0.000 C 
ATOM     44  F5  UNL A   1      43.177  25.136  33.409  1.00  0.00    +0.000 F 
ENDBRANCH   33   34
BRANCH   50   51
ATOM     51  C38 UNL A   1      45.471  29.181  28.896  1.00  0.00    +0.000 C 
ATOM     52  C39 UNL A   1      46.736  29.322  28.299  1.00  0.00    +0.000 C 
ATOM     53  F6  UNL A   1      47.782  28.607  28.731  1.00  0.00    +0.000 F 
ATOM     54  C40 UNL A   1      46.936  30.167  27.206  1.00  0.00    +0.000 C 
ATOM     55  F7  UNL A   1      48.157  30.288  26.663  1.00  0.00    +0.000 F 
ATOM     56  C41 UNL A   1      45.867  30.854  26.657  1.00  0.00    +0.000 C 
ATOM     57  F8  UNL A   1      46.047  31.632  25.580  1.00  0.00    +0.000 F 
ATOM     58  C42 UNL A   1      44.606  30.713  27.210  1.00  0.00    +0.000 C 
ATOM     59  F9  UNL A   1      43.559  31.340  26.656  1.00  0.00    +0.000 F 
ATOM     60  C43 UNL A   1      44.413  29.899  28.324  1.00  0.00    +0.000 C 
ATOM     61  F10 UNL A   1      43.171  29.769  28.818  1.00  0.00    +0.000 F 
ENDBRANCH   50   51
BRANCH   65   66
ATOM     66  C47 UNL A   1      42.683  23.903  26.752  1.00  0.00    +0.000 C 
ATOM     67  C48 UNL A   1      43.479  23.525  25.658  1.00  0.00    +0.000 C 
ATOM     68  F11 UNL A   1      44.230  24.439  25.025  1.00  0.00    +0.000 F 
ATOM     69  C49 UNL A   1      43.581  22.190  25.254  1.00  0.00    +0.000 C 
ATOM     70  F12 UNL A   1      44.408  21.857  24.252  1.00  0.00    +0.000 F 
ATOM     71  C50 UNL A   1      42.883  21.199  25.924  1.00  0.00    +0.000 C 
ATOM     72  F13 UNL A   1      43.039  19.912  25.585  1.00  0.00    +0.000 F 
ATOM     73  C51 UNL A   1      42.057  21.545  26.978  1.00  0.00    +0.000 C 
ATOM     74  F14 UNL A   1      41.405  20.591  27.659  1.00  0.00    +0.000 F 
ATOM     75  C52 UNL A   1      41.956  22.877  27.386  1.00  0.00    +0.000 C 
ATOM     76  F15 UNL A   1      41.215  23.131  28.473  1.00  0.00    +0.000 F 
ENDBRANCH   65   66
TORSDOF 20
ENDMDL
MODEL 10
REMARK VINA RESULT:     -10.1      3.776      8.005
ROOT
ATOM    129  H39 UNL A   1      41.361  27.514  26.001  1.00  0.00    +0.000 H 
ATOM     29  C23 UNL A   1      41.761  28.046  28.789  1.00  0.00    +0.000 C 
ATOM     30  C24 UNL A   1      42.085  26.814  28.035  1.00  0.00    +0.000 C 
ATOM     31  N4  UNL A   1      42.525  25.696  28.508  1.00  0.00    +0.000 N 
ATOM     32  C25 UNL A   1      42.695  24.859  27.410  1.00  0.00    +0.000 C 
ATOM     33  C26 UNL A   1      43.555  23.806  27.458  1.00  0.00    +0.000 C 
ATOM     45  C33 UNL A   1      43.922  23.501  28.818  1.00  0.00    +0.000 C 
ATOM     46  C34 UNL A   1      43.247  23.022  29.923  1.00  0.00    +0.000 C 
ATOM     47  C35 UNL A   1      43.803  23.725  31.033  1.00  0.00    +0.000 C 
ATOM     48  C36 UNL A   1      44.827  24.549  30.560  1.00  0.00    +0.000 C 
ATOM     49  N5  UNL A   1      45.076  24.067  29.300  1.00  0.00    +0.000 N 
ATOM     50  C37 UNL A   1      45.465  25.726  31.111  1.00  0.00    +0.000 C 
ATOM     62  C44 UNL A   1      46.219  26.616  30.400  1.00  0.00    +0.000 C 
ATOM     63  N6  UNL A   1      46.425  27.907  30.868  1.00  0.00    +0.000 N 
ATOM     64  C45 UNL A   1      46.632  28.624  29.796  1.00  0.00    +0.000 C 
ATOM     65  C46 UNL A   1      46.110  30.004  29.620  1.00  0.00    +0.000 C 
ATOM     77  C53 UNL A   1      44.759  29.895  29.590  1.00  0.00    +0.000 C 
ATOM     78  C54 UNL A   1      43.737  30.887  29.827  1.00  0.00    +0.000 C 
ATOM     79  C55 UNL A   1      42.538  30.276  29.741  1.00  0.00    +0.000 C 
ATOM     80  C56 UNL A   1      42.704  28.901  29.248  1.00  0.00    +0.000 C 
ATOM     81  N7  UNL A   1      44.064  28.711  29.270  1.00  0.00    +0.000 N 
ATOM     82  C57 UNL A   1      46.979  27.878  28.600  1.00  0.00    +0.000 C 
ATOM     83  C58 UNL A   1      46.644  26.651  29.003  1.00  0.00    +0.000 C 
ATOM     84  C59 UNL A   1      42.036  25.503  26.303  1.00  0.00    +0.000 C 
ATOM     85  C60 UNL A   1      41.737  26.768  26.607  1.00  0.00    +0.000 C 
ATOM    120  H30 UNL A   1      42.501  22.310  29.942  1.00  0.00    +0.000 H 
ATOM    121  H31 UNL A   1      43.501  23.641  32.017  1.00  0.00    +0.000 H 
ATOM    122  H32 UNL A   1      45.935  24.118  28.822  1.00  0.00    +0.000 H 
ATOM    123  H33 UNL A   1      43.896  31.886  30.026  1.00  0.00    +0.000 H 
ATOM    124  H34 UNL A   1      41.634  30.712  29.986  1.00  0.00    +0.000 H 
ATOM    125  H35 UNL A   1      44.501  27.850  29.084  1.00  0.00    +0.000 H 
ATOM    126  H36 UNL A   1      47.369  28.201  27.701  1.00  0.00    +0.000 H 
ATOM    127  H37 UNL A   1      46.681  25.818  28.395  1.00  0.00    +0.000 H 
ATOM    128  H38 UNL A   1      41.824  25.049  25.401  1.00  0.00    +0.000 H 
ENDROOT
BRANCH   29   28
ATOM    130  H40 UNL A   1      40.472  29.222  26.869  1.00  0.00    +0.000 H 
ATOM    131  H41 UNL A   1      38.442  30.516  27.208  1.00  0.00    +0.000 H 
ATOM     28  C22 UNL A   1      40.352  28.394  28.804  1.00  0.00    +0.000 C 
ATOM     86  C61 UNL A   1      39.900  29.127  27.723  1.00  0.00    +0.000 C 
ATOM     87  C62 UNL A   1      38.679  29.719  27.819  1.00  0.00    +0.000 C 
ATOM    118  H28 UNL A   1      37.469  28.071  30.478  1.00  0.00    +0.000 H 
ATOM     25  C19 UNL A   1      37.753  29.250  28.738  1.00  0.00    +0.000 C 
ATOM     26  C20 UNL A   1      38.149  28.403  29.777  1.00  0.00    +0.000 C 
ATOM     27  C21 UNL A   1      39.487  28.016  29.842  1.00  0.00    +0.000 C 
ATOM    119  H29 UNL A   1      39.835  27.463  30.641  1.00  0.00    +0.000 H 
BRANCH   25   23
ATOM     23  C18 UNL A   1      36.352  29.669  28.550  1.00  0.00    +0.000 C 
ATOM     24  O3  UNL A   1      35.836  30.464  29.310  1.00  0.00    +0.000 O 
BRANCH   23   22
ATOM    117  H27 UNL A   1      36.163  28.546  26.879  1.00  0.00    +0.000 H 
ATOM     22  N3  UNL A   1      35.650  29.135  27.478  1.00  0.00    +0.000 N 
BRANCH   22   21
ATOM    115  H25 UNL A   1      33.719  29.695  27.988  1.00  0.00    +0.000 H 
ATOM    116  H26 UNL A   1      34.206  30.043  26.321  1.00  0.00    +0.000 H 
ATOM     21  C17 UNL A   1      34.242  29.338  27.124  1.00  0.00    +0.000 C 
BRANCH   21   20
ATOM    113  H23 UNL A   1      33.878  27.876  25.637  1.00  0.00    +0.000 H 
ATOM    114  H24 UNL A   1      33.871  27.279  27.308  1.00  0.00    +0.000 H 
ATOM     20  C16 UNL A   1      33.571  28.063  26.645  1.00  0.00    +0.000 C 
BRANCH   20   19
ATOM     19  C15 UNL A   1      32.038  28.132  26.684  1.00  0.00    +0.000 C 
ATOM    111  H21 UNL A   1      31.755  28.603  27.603  1.00  0.00    +0.000 H 
ATOM    112  H22 UNL A   1      31.755  28.674  25.805  1.00  0.00    +0.000 H 
BRANCH   19   18
ATOM     18  C14 UNL A   1      31.292  26.790  26.596  1.00  0.00    +0.000 C 
ATOM    109  H19 UNL A   1      30.693  26.685  27.477  1.00  0.00    +0.000 H 
ATOM    110  H20 UNL A   1      30.721  26.826  25.693  1.00  0.00    +0.000 H 
BRANCH   18   17
ATOM     17  C13 UNL A   1      32.189  25.554  26.484  1.00  0.00    +0.000 C 
ATOM    107  H17 UNL A   1      32.615  25.532  25.503  1.00  0.00    +0.000 H 
ATOM    108  H18 UNL A   1      32.938  25.636  27.245  1.00  0.00    +0.000 H 
BRANCH   17   16
ATOM    105  H15 UNL A   1      31.012  24.253  27.701  1.00  0.00    +0.000 H 
ATOM    106  H16 UNL A   1      30.676  24.141  25.983  1.00  0.00    +0.000 H 
ATOM     16  C12 UNL A   1      31.442  24.241  26.721  1.00  0.00    +0.000 C 
BRANCH   16   15
ATOM     15  N2  UNL A   1      32.345  23.120  26.613  1.00  0.00    +0.000 N 
ATOM    104  H14 UNL A   1      32.792  22.874  27.455  1.00  0.00    +0.000 H 
BRANCH   15   13
ATOM     13  C11 UNL A   1      32.684  22.348  25.550  1.00  0.00    +0.000 C 
ATOM     14  O2  UNL A   1      31.964  21.377  25.305  1.00  0.00    +0.000 O 
BRANCH   13   12
ATOM     12  C10 UNL A   1      33.954  22.580  24.753  1.00  0.00    +0.000 C 
ATOM    102  H12 UNL A   1      34.341  23.529  25.064  1.00  0.00    +0.000 H 
ATOM    103  H13 UNL A   1      34.535  21.707  24.969  1.00  0.00    +0.000 H 
BRANCH   12   11
ATOM     11  C9  UNL A   1      33.924  22.601  23.219  1.00  0.00    +0.000 C 
ATOM    100  H10 UNL A   1      34.854  23.029  22.908  1.00  0.00    +0.000 H 
ATOM    101  H11 UNL A   1      33.718  21.577  22.987  1.00  0.00    +0.000 H 
BRANCH   11   10
ATOM     10  C8  UNL A   1      32.826  23.335  22.432  1.00  0.00    +0.000 C 
ATOM     99  H9  UNL A   1      32.016  22.636  22.453  1.00  0.00    +0.000 H 
ATOM     98  H8  UNL A   1      33.252  23.592  21.485  1.00  0.00    +0.000 H 
BRANCH   10    9
ATOM      2  C2  UNL A   1      29.686  28.543  23.057  1.00  0.00    +0.000 C 
ATOM      3  C3  UNL A   1      30.966  29.110  22.992  1.00  0.00    +0.000 C 
ATOM      4  C4  UNL A   1      32.103  28.283  22.969  1.00  0.00    +0.000 C 
ATOM      6  C6  UNL A   1      31.881  26.911  22.963  1.00  0.00    +0.000 C 
ATOM      7  C7  UNL A   1      32.835  25.795  22.774  1.00  0.00    +0.000 C 
ATOM      8  O1  UNL A   1      33.988  25.974  22.405  1.00  0.00    +0.000 O 
ATOM      9  N1  UNL A   1      32.210  24.554  22.953  1.00  0.00    +0.000 N 
ATOM     88  S1  UNL A   1      30.540  24.693  23.305  1.00  0.00    +0.000 S 
ATOM     89  C63 UNL A   1      30.589  26.446  23.103  1.00  0.00    +0.000 C 
ATOM     90  N8  UNL A   1      29.483  27.208  23.131  1.00  0.00    +0.000 N 
ATOM     94  H4  UNL A   1      31.074  30.137  22.960  1.00  0.00    +0.000 H 
BRANCH    2    1
ATOM      1  C1  UNL A   1      28.456  29.400  23.015  1.00  0.00    +0.000 C 
ATOM     91  H1  UNL A   1      27.948  29.340  23.955  1.00  0.00    +0.000 H 
ATOM     92  H2  UNL A   1      27.808  29.057  22.237  1.00  0.00    +0.000 H 
ATOM     93  H3  UNL A   1      28.736  30.416  22.826  1.00  0.00    +0.000 H 
ENDBRANCH    2    1
BRANCH    4    5
ATOM     97  H7  UNL A   1      34.129  28.274  22.381  1.00  0.00    +0.000 H 
ATOM      5  C5  UNL A   1      33.479  28.869  22.987  1.00  0.00    +0.000 C 
ATOM     95  H5  UNL A   1      33.845  28.887  23.992  1.00  0.00    +0.000 H 
ATOM     96  H6  UNL A   1      33.446  29.868  22.602  1.00  0.00    +0.000 H 
ENDBRANCH    4    5
ENDBRANCH   10    9
ENDBRANCH   11   10
ENDBRANCH   12   11
ENDBRANCH   13   12
ENDBRANCH   15   13
ENDBRANCH   16   15
ENDBRANCH   17   16
ENDBRANCH   18   17
ENDBRANCH   19   18
ENDBRANCH   20   19
ENDBRANCH   21   20
ENDBRANCH   22   21
ENDBRANCH   23   22
ENDBRANCH   25   23
ENDBRANCH   29   28
BRANCH   33   34
ATOM     34  C27 UNL A   1      44.325  23.271  26.277  1.00  0.00    +0.000 C 
ATOM     35  C28 UNL A   1      44.206  21.910  25.934  1.00  0.00    +0.000 C 
ATOM     36  F1  UNL A   1      43.261  21.143  26.497  1.00  0.00    +0.000 F 
ATOM     37  C29 UNL A   1      45.104  21.285  25.063  1.00  0.00    +0.000 C 
ATOM     38  F2  UNL A   1      45.017  19.965  24.853  1.00  0.00    +0.000 F 
ATOM     39  C30 UNL A   1      46.118  22.007  24.461  1.00  0.00    +0.000 C 
ATOM     40  F3  UNL A   1      47.008  21.401  23.666  1.00  0.00    +0.000 F 
ATOM     41  C31 UNL A   1      46.235  23.354  24.728  1.00  0.00    +0.000 C 
ATOM     42  F4  UNL A   1      47.222  24.068  24.171  1.00  0.00    +0.000 F 
ATOM     43  C32 UNL A   1      45.374  23.967  25.638  1.00  0.00    +0.000 C 
ATOM     44  F5  UNL A   1      45.681  25.234  25.944  1.00  0.00    +0.000 F 
ENDBRANCH   33   34
BRANCH   50   51
ATOM     51  C38 UNL A   1      45.089  26.105  32.523  1.00  0.00    +0.000 C 
ATOM     52  C39 UNL A   1      43.907  26.785  32.870  1.00  0.00    +0.000 C 
ATOM     53  F6  UNL A   1      43.046  27.188  31.928  1.00  0.00    +0.000 F 
ATOM     54  C40 UNL A   1      43.562  27.014  34.203  1.00  0.00    +0.000 C 
ATOM     55  F7  UNL A   1      42.434  27.674  34.503  1.00  0.00    +0.000 F 
ATOM     56  C41 UNL A   1      44.367  26.530  35.220  1.00  0.00    +0.000 C 
ATOM     57  F8  UNL A   1      44.017  26.711  36.501  1.00  0.00    +0.000 F 
ATOM     58  C42 UNL A   1      45.523  25.835  34.906  1.00  0.00    +0.000 C 
ATOM     59  F9  UNL A   1      46.283  25.325  35.885  1.00  0.00    +0.000 F 
ATOM     60  C43 UNL A   1      45.886  25.638  33.575  1.00  0.00    +0.000 C 
ATOM     61  F10 UNL A   1      47.002  24.940  33.310  1.00  0.00    +0.000 F 
ENDBRANCH   50   51
BRANCH   65   66
ATOM     66  C47 UNL A   1      46.947  31.110  29.099  1.00  0.00    +0.000 C 
ATOM     67  C48 UNL A   1      46.786  31.564  27.780  1.00  0.00    +0.000 C 
ATOM     68  F11 UNL A   1      46.068  30.847  26.904  1.00  0.00    +0.000 F 
ATOM     69  C49 UNL A   1      47.289  32.802  27.367  1.00  0.00    +0.000 C 
ATOM     70  F12 UNL A   1      47.053  33.237  26.120  1.00  0.00    +0.000 F 
ATOM     71  C50 UNL A   1      47.974  33.614  28.257  1.00  0.00    +0.000 C 
ATOM     72  F13 UNL A   1      48.389  34.831  27.883  1.00  0.00    +0.000 F 
ATOM     73  C51 UNL A   1      48.185  33.174  29.551  1.00  0.00    +0.000 C 
ATOM     74  F14 UNL A   1      48.814  33.966  30.432  1.00  0.00    +0.000 F 
ATOM     75  C52 UNL A   1      47.682  31.940  29.967  1.00  0.00    +0.000 C 
ATOM     76  F15 UNL A   1      47.838  31.618  31.258  1.00  0.00    +0.000 F 
ENDBRANCH   65   66
TORSDOF 20
ENDMDL
