MODEL 1
REMARK VINA RESULT:      -7.8      0.000      0.000
ROOT
ATOM    133  H29 UNL A   1       9.897  44.988   7.455  1.00  0.00    +0.000 H 
ATOM    134  H30 UNL A   1      12.316  44.964   8.481  1.00  0.00    +0.000 H 
ATOM    135  H31 UNL A   1      10.492  48.527   9.529  1.00  0.00    +0.000 H 
ATOM    136  H32 UNL A   1      14.186  45.431   6.043  1.00  0.00    +0.000 H 
ATOM    137  H33 UNL A   1      11.827  46.368   5.695  1.00  0.00    +0.000 H 
ATOM    138  H34 UNL A   1      14.536  48.685   3.572  1.00  0.00    +0.000 H 
ATOM    139  H35 UNL A   1      17.350  47.879   8.695  1.00  0.00    +0.000 H 
ATOM    140  H36 UNL A   1      15.820  47.527  10.735  1.00  0.00    +0.000 H 
ATOM    141  H37 UNL A   1       7.510  49.679   5.776  1.00  0.00    +0.000 H 
ATOM    142  H38 UNL A   1       9.311  50.336   4.059  1.00  0.00    +0.000 H 
ATOM     38  C25 UNL A   1      11.902  49.124   4.727  1.00  0.00    +0.000 C 
ATOM     39  C26 UNL A   1      10.620  49.118   5.442  1.00  0.00    +0.000 C 
ATOM     40  N6  UNL A   1      10.443  48.609   6.606  1.00  0.00    +0.000 N 
ATOM     41  C27 UNL A   1       9.083  48.563   6.827  1.00  0.00    +0.000 C 
ATOM     42  C28 UNL A   1       8.613  47.671   7.743  1.00  0.00    +0.000 C 
ATOM     54  C35 UNL A   1       9.738  46.953   8.339  1.00  0.00    +0.000 C 
ATOM     55  C36 UNL A   1      10.329  45.744   8.009  1.00  0.00    +0.000 C 
ATOM     56  C37 UNL A   1      11.630  45.729   8.568  1.00  0.00    +0.000 C 
ATOM     57  C38 UNL A   1      11.821  46.918   9.253  1.00  0.00    +0.000 C 
ATOM     58  N7  UNL A   1      10.653  47.644   9.123  1.00  0.00    +0.000 N 
ATOM     59  C39 UNL A   1      12.930  47.417  10.051  1.00  0.00    +0.000 C 
ATOM     71  C46 UNL A   1      14.101  47.573   9.364  1.00  0.00    +0.000 C 
ATOM     72  N8  UNL A   1      14.131  47.725   8.001  1.00  0.00    +0.000 N 
ATOM     73  C47 UNL A   1      15.369  47.850   7.609  1.00  0.00    +0.000 C 
ATOM     74  C48 UNL A   1      15.775  47.999   6.163  1.00  0.00    +0.000 C 
ATOM     86  C55 UNL A   1      14.877  47.420   5.312  1.00  0.00    +0.000 C 
ATOM     87  C56 UNL A   1      13.945  46.366   5.677  1.00  0.00    +0.000 C 
ATOM     88  C57 UNL A   1      12.709  46.842   5.448  1.00  0.00    +0.000 C 
ATOM     89  C58 UNL A   1      12.823  48.138   4.792  1.00  0.00    +0.000 C 
ATOM     90  N9  UNL A   1      14.173  48.207   4.353  1.00  0.00    +0.000 N 
ATOM     91  C59 UNL A   1      16.321  47.799   8.712  1.00  0.00    +0.000 C 
ATOM     92  C60 UNL A   1      15.497  47.621   9.759  1.00  0.00    +0.000 C 
ATOM     93  C61 UNL A   1       8.502  49.398   5.807  1.00  0.00    +0.000 C 
ATOM     94  C62 UNL A   1       9.421  49.758   4.907  1.00  0.00    +0.000 C 
ENDROOT
BRANCH   38   37
ATOM     34  C21 UNL A   1      12.735  51.643   1.573  1.00  0.00    +0.000 C 
ATOM     35  C22 UNL A   1      13.031  52.130   2.855  1.00  0.00    +0.000 C 
ATOM     36  C23 UNL A   1      12.669  51.377   3.960  1.00  0.00    +0.000 C 
ATOM    131  H27 UNL A   1      13.511  53.036   2.974  1.00  0.00    +0.000 H 
ATOM    132  H28 UNL A   1      12.832  51.719   4.920  1.00  0.00    +0.000 H 
ATOM     37  C24 UNL A   1      12.079  50.144   3.722  1.00  0.00    +0.000 C 
ATOM    143  H39 UNL A   1      11.053  48.916   2.338  1.00  0.00    +0.000 H 
ATOM    144  H40 UNL A   1      11.312  50.496   0.505  1.00  0.00    +0.000 H 
ATOM     95  C63 UNL A   1      11.584  49.793   2.465  1.00  0.00    +0.000 C 
ATOM     96  C64 UNL A   1      11.810  50.623   1.400  1.00  0.00    +0.000 C 
BRANCH   34   32
ATOM     33  O7  UNL A   1      14.071  53.069   0.276  1.00  0.00    +0.000 O 
ATOM     32  C20 UNL A   1      13.758  51.912   0.537  1.00  0.00    +0.000 C 
BRANCH   32   31
ATOM    130  H26 UNL A   1      14.704  50.917  -0.935  1.00  0.00    +0.000 H 
ATOM     31  N5  UNL A   1      14.500  50.862   0.027  1.00  0.00    +0.000 N 
BRANCH   31   30
ATOM    129  H25 UNL A   1      14.418  49.528   1.576  1.00  0.00    +0.000 H 
ATOM     30  C19 UNL A   1      15.024  49.688   0.708  1.00  0.00    +0.000 C 
ATOM    128  H24 UNL A   1      16.047  49.870   0.962  1.00  0.00    +0.000 H 
BRANCH   30   29
ATOM     29  C18 UNL A   1      14.951  48.427  -0.133  1.00  0.00    +0.000 C 
ATOM    126  H22 UNL A   1      15.417  47.634   0.414  1.00  0.00    +0.000 H 
ATOM    127  H23 UNL A   1      13.914  48.248  -0.326  1.00  0.00    +0.000 H 
BRANCH   29   28
ATOM    124  H20 UNL A   1      14.879  48.711  -2.228  1.00  0.00    +0.000 H 
ATOM     28  C17 UNL A   1      15.637  48.537  -1.494  1.00  0.00    +0.000 C 
ATOM    125  H21 UNL A   1      16.344  49.334  -1.396  1.00  0.00    +0.000 H 
BRANCH   28   27
ATOM    122  H18 UNL A   1      16.104  46.468  -1.387  1.00  0.00    +0.000 H 
ATOM     27  C16 UNL A   1      16.452  47.314  -1.940  1.00  0.00    +0.000 C 
ATOM    123  H19 UNL A   1      16.301  47.235  -2.997  1.00  0.00    +0.000 H 
BRANCH   27   26
ATOM    121  H17 UNL A   1      18.374  46.470  -2.037  1.00  0.00    +0.000 H 
ATOM     26  C15 UNL A   1      17.965  47.414  -1.742  1.00  0.00    +0.000 C 
ATOM    120  H16 UNL A   1      18.153  47.648  -0.716  1.00  0.00    +0.000 H 
BRANCH   26   25
ATOM     25  C14 UNL A   1      18.642  48.470  -2.604  1.00  0.00    +0.000 C 
ATOM    118  H14 UNL A   1      19.442  48.007  -3.144  1.00  0.00    +0.000 H 
ATOM    119  H15 UNL A   1      17.896  48.873  -3.257  1.00  0.00    +0.000 H 
BRANCH   25   24
ATOM    117  H13 UNL A   1      19.976  49.367  -1.296  1.00  0.00    +0.000 H 
ATOM     24  N4  UNL A   1      19.181  49.569  -1.840  1.00  0.00    +0.000 N 
BRANCH   24   22
ATOM     22  C13 UNL A   1      18.725  50.856  -1.776  1.00  0.00    +0.000 C 
ATOM     23  O6  UNL A   1      18.928  51.583  -2.751  1.00  0.00    +0.000 O 
BRANCH   22   21
ATOM    115  H11 UNL A   1      17.380  50.725  -0.129  1.00  0.00    +0.000 H 
ATOM    116  H12 UNL A   1      18.913  51.596   0.186  1.00  0.00    +0.000 H 
ATOM     21  C12 UNL A   1      18.100  51.430  -0.490  1.00  0.00    +0.000 C 
BRANCH   21   20
ATOM    114  H10 UNL A   1      16.504  52.660  -0.958  1.00  0.00    +0.000 H 
ATOM     20  N3  UNL A   1      17.433  52.715  -0.641  1.00  0.00    +0.000 N 
BRANCH   20   18
ATOM     18  C11 UNL A   1      17.887  53.981  -0.416  1.00  0.00    +0.000 C 
ATOM     19  O5  UNL A   1      18.997  54.108   0.107  1.00  0.00    +0.000 O 
BRANCH   18   17
ATOM     17  C10 UNL A   1      17.050  55.216  -0.789  1.00  0.00    +0.000 C 
ATOM    113  H9  UNL A   1      16.336  54.886  -1.512  1.00  0.00    +0.000 H 
ATOM    112  H8  UNL A   1      17.716  55.967  -1.161  1.00  0.00    +0.000 H 
BRANCH   17   16
ATOM    111  H7  UNL A   1      15.304  55.713   0.211  1.00  0.00    +0.000 H 
ATOM     16  N2  UNL A   1      16.280  55.798   0.313  1.00  0.00    +0.000 N 
BRANCH   16   14
ATOM     14  C9  UNL A   1      16.673  56.444   1.469  1.00  0.00    +0.000 C 
ATOM     15  O4  UNL A   1      17.002  57.623   1.399  1.00  0.00    +0.000 O 
BRANCH   14   12
ATOM     12  C8  UNL A   1      16.698  55.695   2.820  1.00  0.00    +0.000 C 
ATOM     13  O3  UNL A   1      17.661  54.966   3.035  1.00  0.00    +0.000 O 
BRANCH   12   11
ATOM     97  C65 UNL A   1      14.228  55.810   3.553  1.00  0.00    +0.000 C 
ATOM     98  C66 UNL A   1      13.480  55.691   2.359  1.00  0.00    +0.000 C 
ATOM     99  C67 UNL A   1      12.087  55.661   2.402  1.00  0.00    +0.000 C 
ATOM    100  C68 UNL A   1      11.421  55.766   3.614  1.00  0.00    +0.000 C 
ATOM    101  C69 UNL A   1      12.126  55.914   4.812  1.00  0.00    +0.000 C 
ATOM    102  C70 UNL A   1      13.533  55.926   4.764  1.00  0.00    +0.000 C 
ATOM      9  N1  UNL A   1      14.499  55.998   5.745  1.00  0.00    +0.000 N 
ATOM     10  C6  UNL A   1      15.764  55.945   5.206  1.00  0.00    +0.000 C 
ATOM     11  C7  UNL A   1      15.642  55.820   3.833  1.00  0.00    +0.000 C 
ATOM    110  H6  UNL A   1      16.650  55.990   5.734  1.00  0.00    +0.000 H 
ATOM    145  H41 UNL A   1      13.969  55.626   1.452  1.00  0.00    +0.000 H 
ATOM    146  H42 UNL A   1      11.549  55.560   1.527  1.00  0.00    +0.000 H 
ATOM    147  H43 UNL A   1      10.390  55.736   3.632  1.00  0.00    +0.000 H 
ATOM    148  H44 UNL A   1      11.627  56.012   5.711  1.00  0.00    +0.000 H 
BRANCH    9    6
ATOM      6  S1  UNL A   1      14.176  56.034   7.419  1.00  0.00    +0.000 S 
ATOM      7  O1  UNL A   1      13.520  57.300   7.654  1.00  0.00    +0.000 O 
ATOM      8  O2  UNL A   1      15.432  55.682   8.068  1.00  0.00    +0.000 O 
BRANCH    6    5
ATOM      2  C2  UNL A   1      11.355  52.574   8.419  1.00  0.00    +0.000 C 
ATOM      3  C3  UNL A   1      12.526  52.373   7.678  1.00  0.00    +0.000 C 
ATOM      4  C4  UNL A   1      13.358  53.449   7.366  1.00  0.00    +0.000 C 
ATOM      5  C5  UNL A   1      13.016  54.742   7.784  1.00  0.00    +0.000 C 
ATOM    103  C71 UNL A   1      11.830  54.958   8.487  1.00  0.00    +0.000 C 
ATOM    104  C72 UNL A   1      11.011  53.873   8.812  1.00  0.00    +0.000 C 
ATOM    108  H4  UNL A   1      12.775  51.423   7.361  1.00  0.00    +0.000 H 
ATOM    109  H5  UNL A   1      14.224  53.293   6.828  1.00  0.00    +0.000 H 
ATOM    149  H45 UNL A   1      11.559  55.915   8.765  1.00  0.00    +0.000 H 
ATOM    150  H46 UNL A   1      10.143  54.030   9.348  1.00  0.00    +0.000 H 
BRANCH    2    1
ATOM      1  C1  UNL A   1      10.486  51.405   8.779  1.00  0.00    +0.000 C 
ATOM    106  H2  UNL A   1      10.420  50.738   7.945  1.00  0.00    +0.000 H 
ATOM    107  H3  UNL A   1       9.507  51.753   9.034  1.00  0.00    +0.000 H 
ATOM    105  H1  UNL A   1      10.910  50.889   9.615  1.00  0.00    +0.000 H 
ENDBRANCH    2    1
ENDBRANCH    6    5
ENDBRANCH    9    6
ENDBRANCH   12   11
ENDBRANCH   14   12
ENDBRANCH   16   14
ENDBRANCH   17   16
ENDBRANCH   18   17
ENDBRANCH   20   18
ENDBRANCH   21   20
ENDBRANCH   22   21
ENDBRANCH   24   22
ENDBRANCH   25   24
ENDBRANCH   26   25
ENDBRANCH   27   26
ENDBRANCH   28   27
ENDBRANCH   29   28
ENDBRANCH   30   29
ENDBRANCH   31   30
ENDBRANCH   32   31
ENDBRANCH   34   32
ENDBRANCH   38   37
BRANCH   42   43
ATOM     43  C29 UNL A   1       7.180  47.204   7.870  1.00  0.00    +0.000 C 
ATOM     44  C30 UNL A   1       6.258  47.957   8.635  1.00  0.00    +0.000 C 
ATOM     45  F1  UNL A   1       6.586  49.146   9.156  1.00  0.00    +0.000 F 
ATOM     46  C31 UNL A   1       4.957  47.523   8.894  1.00  0.00    +0.000 C 
ATOM     47  F2  UNL A   1       4.140  48.282   9.638  1.00  0.00    +0.000 F 
ATOM     48  C32 UNL A   1       4.512  46.316   8.399  1.00  0.00    +0.000 C 
ATOM     49  F3  UNL A   1       3.271  45.888   8.665  1.00  0.00    +0.000 F 
ATOM     50  C33 UNL A   1       5.356  45.572   7.601  1.00  0.00    +0.000 C 
ATOM     51  F4  UNL A   1       4.931  44.407   7.091  1.00  0.00    +0.000 F 
ATOM     52  C34 UNL A   1       6.648  46.026   7.311  1.00  0.00    +0.000 C 
ATOM     53  F5  UNL A   1       7.331  45.300   6.421  1.00  0.00    +0.000 F 
ENDBRANCH   42   43
BRANCH   59   60
ATOM     65  C43 UNL A   1      12.151  47.855  14.319  1.00  0.00    +0.000 C 
ATOM     66  F8  UNL A   1      11.878  47.982  15.624  1.00  0.00    +0.000 F 
ATOM     67  C44 UNL A   1      12.130  46.615  13.723  1.00  0.00    +0.000 C 
ATOM     68  F9  UNL A   1      11.786  45.532  14.434  1.00  0.00    +0.000 F 
ATOM     69  C45 UNL A   1      12.447  46.484  12.373  1.00  0.00    +0.000 C 
ATOM     70  F10 UNL A   1      12.431  45.228  11.903  1.00  0.00    +0.000 F 
ATOM     60  C40 UNL A   1      12.733  47.596  11.540  1.00  0.00    +0.000 C 
ATOM     61  C41 UNL A   1      12.668  48.845  12.178  1.00  0.00    +0.000 C 
ATOM     62  F6  UNL A   1      12.765  49.992  11.493  1.00  0.00    +0.000 F 
ATOM     63  C42 UNL A   1      12.431  48.967  13.550  1.00  0.00    +0.000 C 
ATOM     64  F7  UNL A   1      12.447  50.182  14.117  1.00  0.00    +0.000 F 
ENDBRANCH   59   60
BRANCH   74   75
ATOM     75  C49 UNL A   1      16.430  49.197   5.562  1.00  0.00    +0.000 C 
ATOM     76  C50 UNL A   1      17.187  48.999   4.388  1.00  0.00    +0.000 C 
ATOM     77  F11 UNL A   1      17.682  47.782   4.109  1.00  0.00    +0.000 F 
ATOM     78  C51 UNL A   1      17.310  50.003   3.429  1.00  0.00    +0.000 C 
ATOM     79  F12 UNL A   1      17.901  49.737   2.256  1.00  0.00    +0.000 F 
ATOM     80  C52 UNL A   1      16.741  51.244   3.655  1.00  0.00    +0.000 C 
ATOM     81  F13 UNL A   1      16.760  52.176   2.692  1.00  0.00    +0.000 F 
ATOM     82  C53 UNL A   1      16.116  51.503   4.867  1.00  0.00    +0.000 C 
ATOM     83  F14 UNL A   1      15.567  52.708   5.084  1.00  0.00    +0.000 F 
ATOM     84  C54 UNL A   1      15.962  50.491   5.818  1.00  0.00    +0.000 C 
ATOM     85  F15 UNL A   1      15.249  50.749   6.923  1.00  0.00    +0.000 F 
ENDBRANCH   74   75
TORSDOF 25
ENDMDL
MODEL 2
REMARK VINA RESULT:      -7.8     26.453     29.657
ROOT
ATOM    133  H29 UNL A   1      18.711  15.324   7.258  1.00  0.00    +0.000 H 
ATOM    134  H30 UNL A   1      21.295  14.852   7.340  1.00  0.00    +0.000 H 
ATOM    135  H31 UNL A   1      20.598  18.582   8.990  1.00  0.00    +0.000 H 
ATOM    136  H32 UNL A   1      22.227  15.175   4.394  1.00  0.00    +0.000 H 
ATOM    137  H33 UNL A   1      20.095  16.493   4.925  1.00  0.00    +0.000 H 
ATOM    138  H34 UNL A   1      22.225  18.486   1.974  1.00  0.00    +0.000 H 
ATOM    139  H35 UNL A   1      26.495  16.916   5.732  1.00  0.00    +0.000 H 
ATOM    140  H36 UNL A   1      25.753  16.678   8.186  1.00  0.00    +0.000 H 
ATOM    141  H37 UNL A   1      16.721  20.432   6.571  1.00  0.00    +0.000 H 
ATOM    142  H38 UNL A   1      17.878  20.906   4.322  1.00  0.00    +0.000 H 
ATOM     38  C25 UNL A   1      20.290  19.260   4.004  1.00  0.00    +0.000 C 
ATOM     39  C26 UNL A   1      19.365  19.410   5.134  1.00  0.00    +0.000 C 
ATOM     40  N6  UNL A   1      19.529  18.861   6.281  1.00  0.00    +0.000 N 
ATOM     41  C27 UNL A   1      18.350  19.016   6.979  1.00  0.00    +0.000 C 
ATOM     42  C28 UNL A   1      18.092  18.151   8.000  1.00  0.00    +0.000 C 
ATOM     54  C35 UNL A   1      19.215  17.228   8.146  1.00  0.00    +0.000 C 
ATOM     55  C36 UNL A   1      19.434  15.965   7.621  1.00  0.00    +0.000 C 
ATOM     56  C37 UNL A   1      20.826  15.708   7.673  1.00  0.00    +0.000 C 
ATOM     57  C38 UNL A   1      21.448  16.805   8.246  1.00  0.00    +0.000 C 
ATOM     58  N7  UNL A   1      20.452  17.714   8.549  1.00  0.00    +0.000 N 
ATOM     59  C39 UNL A   1      22.835  17.070   8.591  1.00  0.00    +0.000 C 
ATOM     71  C46 UNL A   1      23.695  17.084   7.528  1.00  0.00    +0.000 C 
ATOM     72  N8  UNL A   1      23.264  17.317   6.248  1.00  0.00    +0.000 N 
ATOM     73  C47 UNL A   1      24.283  17.270   5.434  1.00  0.00    +0.000 C 
ATOM     74  C48 UNL A   1      24.168  17.447   3.941  1.00  0.00    +0.000 C 
ATOM     86  C55 UNL A   1      22.942  17.073   3.469  1.00  0.00    +0.000 C 
ATOM     87  C56 UNL A   1      22.035  16.158   4.143  1.00  0.00    +0.000 C 
ATOM     88  C57 UNL A   1      20.899  16.837   4.377  1.00  0.00    +0.000 C 
ATOM     89  C58 UNL A   1      20.991  18.139   3.729  1.00  0.00    +0.000 C 
ATOM     90  N9  UNL A   1      22.088  18.023   2.832  1.00  0.00    +0.000 N 
ATOM     91  C59 UNL A   1      25.541  16.998   6.120  1.00  0.00    +0.000 C 
ATOM     92  C60 UNL A   1      25.126  16.885   7.393  1.00  0.00    +0.000 C 
ATOM     93  C61 UNL A   1      17.596  19.996   6.241  1.00  0.00    +0.000 C 
ATOM     94  C62 UNL A   1      18.182  20.264   5.071  1.00  0.00    +0.000 C 
ENDROOT
BRANCH   38   37
ATOM     34  C21 UNL A   1      20.013  22.579   1.577  1.00  0.00    +0.000 C 
ATOM     35  C22 UNL A   1      19.386  21.413   1.112  1.00  0.00    +0.000 C 
ATOM     36  C23 UNL A   1      19.541  20.236   1.828  1.00  0.00    +0.000 C 
ATOM    131  H27 UNL A   1      18.820  21.430   0.250  1.00  0.00    +0.000 H 
ATOM    132  H28 UNL A   1      19.131  19.349   1.497  1.00  0.00    +0.000 H 
ATOM     37  C24 UNL A   1      20.269  20.302   3.007  1.00  0.00    +0.000 C 
ATOM    143  H39 UNL A   1      21.687  21.380   4.148  1.00  0.00    +0.000 H 
ATOM    144  H40 UNL A   1      21.735  23.260   2.602  1.00  0.00    +0.000 H 
ATOM     95  C63 UNL A   1      21.071  21.401   3.319  1.00  0.00    +0.000 C 
ATOM     96  C64 UNL A   1      21.033  22.508   2.515  1.00  0.00    +0.000 C 
BRANCH   34   32
ATOM     33  O7  UNL A   1      19.710  24.895   1.789  1.00  0.00    +0.000 O 
ATOM     32  C20 UNL A   1      19.242  23.831   1.400  1.00  0.00    +0.000 C 
BRANCH   32   31
ATOM    130  H26 UNL A   1      18.236  24.105  -0.322  1.00  0.00    +0.000 H 
ATOM     31  N5  UNL A   1      18.105  23.822   0.612  1.00  0.00    +0.000 N 
BRANCH   31   30
ATOM    129  H25 UNL A   1      16.138  24.331   0.865  1.00  0.00    +0.000 H 
ATOM     30  C19 UNL A   1      16.742  23.452   0.966  1.00  0.00    +0.000 C 
ATOM    128  H24 UNL A   1      16.741  23.077   1.968  1.00  0.00    +0.000 H 
BRANCH   30   29
ATOM     29  C18 UNL A   1      16.154  22.393   0.052  1.00  0.00    +0.000 C 
ATOM    126  H22 UNL A   1      16.954  21.946  -0.501  1.00  0.00    +0.000 H 
ATOM    127  H23 UNL A   1      15.642  21.696   0.682  1.00  0.00    +0.000 H 
BRANCH   29   28
ATOM    124  H20 UNL A   1      14.239  22.326  -0.845  1.00  0.00    +0.000 H 
ATOM     28  C17 UNL A   1      15.122  22.922  -0.943  1.00  0.00    +0.000 C 
ATOM    125  H21 UNL A   1      14.986  23.953  -0.695  1.00  0.00    +0.000 H 
BRANCH   28   27
ATOM    122  H18 UNL A   1      15.573  21.885  -2.741  1.00  0.00    +0.000 H 
ATOM     27  C16 UNL A   1      15.539  22.905  -2.421  1.00  0.00    +0.000 C 
ATOM    123  H19 UNL A   1      14.811  23.497  -2.935  1.00  0.00    +0.000 H 
BRANCH   27   26
ATOM    121  H17 UNL A   1      17.219  24.026  -1.841  1.00  0.00    +0.000 H 
ATOM     26  C15 UNL A   1      16.892  23.542  -2.738  1.00  0.00    +0.000 C 
ATOM    120  H16 UNL A   1      16.759  24.221  -3.554  1.00  0.00    +0.000 H 
BRANCH   26   25
ATOM     25  C14 UNL A   1      17.980  22.548  -3.118  1.00  0.00    +0.000 C 
ATOM    118  H14 UNL A   1      17.608  21.558  -2.954  1.00  0.00    +0.000 H 
ATOM    119  H15 UNL A   1      18.225  22.722  -4.144  1.00  0.00    +0.000 H 
BRANCH   25   24
ATOM    117  H13 UNL A   1      19.078  22.849  -1.386  1.00  0.00    +0.000 H 
ATOM     24  N4  UNL A   1      19.194  22.713  -2.354  1.00  0.00    +0.000 N 
BRANCH   24   22
ATOM     22  C13 UNL A   1      20.482  22.704  -2.807  1.00  0.00    +0.000 C 
ATOM     23  O6  UNL A   1      20.942  21.629  -3.202  1.00  0.00    +0.000 O 
BRANCH   22   21
ATOM    115  H11 UNL A   1      22.398  23.636  -2.840  1.00  0.00    +0.000 H 
ATOM    116  H12 UNL A   1      21.041  24.623  -3.467  1.00  0.00    +0.000 H 
ATOM     21  C12 UNL A   1      21.384  23.950  -2.708  1.00  0.00    +0.000 C 
BRANCH   21   20
ATOM    114  H10 UNL A   1      21.612  24.183  -0.665  1.00  0.00    +0.000 H 
ATOM     20  N3  UNL A   1      21.300  24.682  -1.453  1.00  0.00    +0.000 N 
BRANCH   20   18
ATOM     18  C11 UNL A   1      20.859  25.946  -1.192  1.00  0.00    +0.000 C 
ATOM     19  O5  UNL A   1      21.646  26.727  -0.651  1.00  0.00    +0.000 O 
BRANCH   18   17
ATOM     17  C10 UNL A   1      19.431  26.392  -1.547  1.00  0.00    +0.000 C 
ATOM    113  H9  UNL A   1      18.999  26.762  -0.642  1.00  0.00    +0.000 H 
ATOM    112  H8  UNL A   1      18.911  25.549  -1.952  1.00  0.00    +0.000 H 
BRANCH   17   16
ATOM    111  H7  UNL A   1      19.747  27.276  -3.394  1.00  0.00    +0.000 H 
ATOM     16  N2  UNL A   1      19.348  27.486  -2.519  1.00  0.00    +0.000 N 
BRANCH   16   14
ATOM     14  C9  UNL A   1      18.814  28.756  -2.430  1.00  0.00    +0.000 C 
ATOM     15  O4  UNL A   1      18.532  29.347  -3.467  1.00  0.00    +0.000 O 
BRANCH   14   12
ATOM     12  C8  UNL A   1      18.580  29.418  -1.055  1.00  0.00    +0.000 C 
ATOM     13  O3  UNL A   1      19.517  29.405  -0.262  1.00  0.00    +0.000 O 
BRANCH   12   11
ATOM     97  C65 UNL A   1      17.184  31.123   0.287  1.00  0.00    +0.000 C 
ATOM     98  C66 UNL A   1      18.122  31.837   1.067  1.00  0.00    +0.000 C 
ATOM     99  C67 UNL A   1      17.703  32.888   1.883  1.00  0.00    +0.000 C 
ATOM    100  C68 UNL A   1      16.360  33.229   1.950  1.00  0.00    +0.000 C 
ATOM    101  C69 UNL A   1      15.402  32.527   1.215  1.00  0.00    +0.000 C 
ATOM    102  C70 UNL A   1      15.833  31.479   0.380  1.00  0.00    +0.000 C 
ATOM      9  N1  UNL A   1      15.166  30.648  -0.495  1.00  0.00    +0.000 N 
ATOM     10  C6  UNL A   1      16.031  29.782  -1.122  1.00  0.00    +0.000 C 
ATOM     11  C7  UNL A   1      17.311  30.049  -0.667  1.00  0.00    +0.000 C 
ATOM    110  H6  UNL A   1      15.773  29.060  -1.812  1.00  0.00    +0.000 H 
ATOM    145  H41 UNL A   1      19.121  31.579   1.032  1.00  0.00    +0.000 H 
ATOM    146  H42 UNL A   1      18.396  33.413   2.440  1.00  0.00    +0.000 H 
ATOM    147  H43 UNL A   1      16.065  34.012   2.553  1.00  0.00    +0.000 H 
ATOM    148  H44 UNL A   1      14.400  32.770   1.282  1.00  0.00    +0.000 H 
BRANCH    9    6
ATOM      6  S1  UNL A   1      13.499  30.751  -0.845  1.00  0.00    +0.000 S 
ATOM      7  O1  UNL A   1      13.302  29.917  -2.008  1.00  0.00    +0.000 O 
ATOM      8  O2  UNL A   1      13.187  32.174  -0.853  1.00  0.00    +0.000 O 
BRANCH    6    5
ATOM      2  C2  UNL A   1      11.045  29.036   2.613  1.00  0.00    +0.000 C 
ATOM      3  C3  UNL A   1      11.286  30.409   2.498  1.00  0.00    +0.000 C 
ATOM      4  C4  UNL A   1      12.058  30.906   1.447  1.00  0.00    +0.000 C 
ATOM      5  C5  UNL A   1      12.607  30.025   0.506  1.00  0.00    +0.000 C 
ATOM    103  C71 UNL A   1      12.407  28.650   0.636  1.00  0.00    +0.000 C 
ATOM    104  C72 UNL A   1      11.617  28.162   1.681  1.00  0.00    +0.000 C 
ATOM    108  H4  UNL A   1      10.890  31.060   3.196  1.00  0.00    +0.000 H 
ATOM    109  H5  UNL A   1      12.224  31.921   1.362  1.00  0.00    +0.000 H 
ATOM    149  H45 UNL A   1      12.839  27.997  -0.037  1.00  0.00    +0.000 H 
ATOM    150  H46 UNL A   1      11.453  27.146   1.766  1.00  0.00    +0.000 H 
BRANCH    2    1
ATOM      1  C1  UNL A   1      10.184  28.516   3.728  1.00  0.00    +0.000 C 
ATOM    106  H2  UNL A   1       9.163  28.772   3.540  1.00  0.00    +0.000 H 
ATOM    107  H3  UNL A   1      10.497  28.953   4.654  1.00  0.00    +0.000 H 
ATOM    105  H1  UNL A   1      10.281  27.451   3.786  1.00  0.00    +0.000 H 
ENDBRANCH    2    1
ENDBRANCH    6    5
ENDBRANCH    9    6
ENDBRANCH   12   11
ENDBRANCH   14   12
ENDBRANCH   16   14
ENDBRANCH   17   16
ENDBRANCH   18   17
ENDBRANCH   20   18
ENDBRANCH   21   20
ENDBRANCH   22   21
ENDBRANCH   24   22
ENDBRANCH   25   24
ENDBRANCH   26   25
ENDBRANCH   27   26
ENDBRANCH   28   27
ENDBRANCH   29   28
ENDBRANCH   30   29
ENDBRANCH   31   30
ENDBRANCH   32   31
ENDBRANCH   34   32
ENDBRANCH   38   37
BRANCH   42   43
ATOM     43  C29 UNL A   1      16.740  17.909   8.634  1.00  0.00    +0.000 C 
ATOM     44  C30 UNL A   1      16.436  18.488   9.888  1.00  0.00    +0.000 C 
ATOM     45  F1  UNL A   1      17.269  19.351  10.483  1.00  0.00    +0.000 F 
ATOM     46  C31 UNL A   1      15.259  18.209  10.586  1.00  0.00    +0.000 C 
ATOM     47  F2  UNL A   1      15.041  18.784  11.777  1.00  0.00    +0.000 F 
ATOM     48  C32 UNL A   1      14.327  17.339  10.062  1.00  0.00    +0.000 C 
ATOM     49  F3  UNL A   1      13.208  17.053  10.740  1.00  0.00    +0.000 F 
ATOM     50  C33 UNL A   1      14.553  16.793   8.816  1.00  0.00    +0.000 C 
ATOM     51  F4  UNL A   1      13.645  15.963   8.281  1.00  0.00    +0.000 F 
ATOM     52  C34 UNL A   1      15.716  17.103   8.101  1.00  0.00    +0.000 C 
ATOM     53  F5  UNL A   1      15.771  16.631   6.853  1.00  0.00    +0.000 F 
ENDBRANCH   42   43
BRANCH   59   60
ATOM     65  C43 UNL A   1      24.139  17.446  12.736  1.00  0.00    +0.000 C 
ATOM     66  F8  UNL A   1      24.572  17.565  13.998  1.00  0.00    +0.000 F 
ATOM     67  C44 UNL A   1      24.154  18.533  11.892  1.00  0.00    +0.000 C 
ATOM     68  F9  UNL A   1      24.651  19.704  12.312  1.00  0.00    +0.000 F 
ATOM     69  C45 UNL A   1      23.671  18.412  10.590  1.00  0.00    +0.000 C 
ATOM     70  F10 UNL A   1      23.699  19.540   9.865  1.00  0.00    +0.000 F 
ATOM     60  C40 UNL A   1      23.214  17.181  10.052  1.00  0.00    +0.000 C 
ATOM     61  C41 UNL A   1      23.289  16.088  10.929  1.00  0.00    +0.000 C 
ATOM     62  F6  UNL A   1      23.036  14.838  10.519  1.00  0.00    +0.000 F 
ATOM     63  C42 UNL A   1      23.696  16.229  12.259  1.00  0.00    +0.000 C 
ATOM     64  F7  UNL A   1      23.682  15.160  13.069  1.00  0.00    +0.000 F 
ENDBRANCH   59   60
BRANCH   74   75
ATOM     75  C49 UNL A   1      24.761  18.562   3.148  1.00  0.00    +0.000 C 
ATOM     76  C50 UNL A   1      24.699  19.858   3.705  1.00  0.00    +0.000 C 
ATOM     77  F11 UNL A   1      23.764  20.145   4.626  1.00  0.00    +0.000 F 
ATOM     78  C51 UNL A   1      25.679  20.810   3.434  1.00  0.00    +0.000 C 
ATOM     79  F12 UNL A   1      25.680  21.975   4.097  1.00  0.00    +0.000 F 
ATOM     80  C52 UNL A   1      26.701  20.513   2.549  1.00  0.00    +0.000 C 
ATOM     81  F13 UNL A   1      27.705  21.382   2.369  1.00  0.00    +0.000 F 
ATOM     82  C53 UNL A   1      26.699  19.297   1.881  1.00  0.00    +0.000 C 
ATOM     83  F14 UNL A   1      27.690  19.013   1.022  1.00  0.00    +0.000 F 
ATOM     84  C54 UNL A   1      25.737  18.327   2.173  1.00  0.00    +0.000 C 
ATOM     85  F15 UNL A   1      25.840  17.122   1.593  1.00  0.00    +0.000 F 
ENDBRANCH   74   75
TORSDOF 25
ENDMDL
MODEL 3
REMARK VINA RESULT:      -7.8     28.997     35.514
ROOT
ATOM    133  H29 UNL A   1      28.576  26.147  -7.662  1.00  0.00    +0.000 H 
ATOM    134  H30 UNL A   1      26.418  27.610  -7.985  1.00  0.00    +0.000 H 
ATOM    135  H31 UNL A   1      25.363  24.160  -5.958  1.00  0.00    +0.000 H 
ATOM    136  H32 UNL A   1      25.725  27.299 -10.998  1.00  0.00    +0.000 H 
ATOM    137  H33 UNL A   1      27.069  25.326 -10.066  1.00  0.00    +0.000 H 
ATOM    138  H34 UNL A   1      24.606  23.971 -13.118  1.00  0.00    +0.000 H 
ATOM    139  H35 UNL A   1      21.012  27.582 -10.143  1.00  0.00    +0.000 H 
ATOM    140  H36 UNL A   1      21.543  27.827  -7.636  1.00  0.00    +0.000 H 
ATOM    141  H37 UNL A   1      28.358  20.627  -7.645  1.00  0.00    +0.000 H 
ATOM    142  H38 UNL A   1      27.332  20.359  -9.990  1.00  0.00    +0.000 H 
ATOM     38  C25 UNL A   1      25.849  22.768 -10.778  1.00  0.00    +0.000 C 
ATOM     39  C26 UNL A   1      26.516  22.414  -9.521  1.00  0.00    +0.000 C 
ATOM     40  N6  UNL A   1      26.481  23.129  -8.456  1.00  0.00    +0.000 N 
ATOM     41  C27 UNL A   1      27.420  22.612  -7.588  1.00  0.00    +0.000 C 
ATOM     42  C28 UNL A   1      27.909  23.430  -6.614  1.00  0.00    +0.000 C 
ATOM     54  C35 UNL A   1      27.254  24.733  -6.703  1.00  0.00    +0.000 C 
ATOM     55  C36 UNL A   1      27.623  25.899  -7.354  1.00  0.00    +0.000 C 
ATOM     56  C37 UNL A   1      26.460  26.689  -7.522  1.00  0.00    +0.000 C 
ATOM     57  C38 UNL A   1      25.391  26.014  -6.956  1.00  0.00    +0.000 C 
ATOM     58  N7  UNL A   1      25.894  24.834  -6.442  1.00  0.00    +0.000 N 
ATOM     59  C39 UNL A   1      23.991  26.368  -6.791  1.00  0.00    +0.000 C 
ATOM     71  C46 UNL A   1      23.309  26.557  -7.960  1.00  0.00    +0.000 C 
ATOM     72  N8  UNL A   1      23.729  26.006  -9.144  1.00  0.00    +0.000 N 
ATOM     73  C47 UNL A   1      22.901  26.346 -10.094  1.00  0.00    +0.000 C 
ATOM     74  C48 UNL A   1      23.078  25.943 -11.537  1.00  0.00    +0.000 C 
ATOM     86  C55 UNL A   1      24.390  25.736 -11.859  1.00  0.00    +0.000 C 
ATOM     87  C56 UNL A   1      25.522  26.297 -11.139  1.00  0.00    +0.000 C 
ATOM     88  C57 UNL A   1      26.251  25.260 -10.693  1.00  0.00    +0.000 C 
ATOM     89  C58 UNL A   1      25.698  24.029 -11.240  1.00  0.00    +0.000 C 
ATOM     90  N9  UNL A   1      24.837  24.451 -12.290  1.00  0.00    +0.000 N 
ATOM     91  C59 UNL A   1      21.805  27.181  -9.619  1.00  0.00    +0.000 C 
ATOM     92  C60 UNL A   1      22.105  27.286  -8.313  1.00  0.00    +0.000 C 
ATOM     93  C61 UNL A   1      27.774  21.326  -8.130  1.00  0.00    +0.000 C 
ATOM     94  C62 UNL A   1      27.246  21.160  -9.346  1.00  0.00    +0.000 C 
ENDROOT
BRANCH   38   37
ATOM     34  C21 UNL A   1      25.073  19.313 -12.887  1.00  0.00    +0.000 C 
ATOM     35  C22 UNL A   1      26.011  20.191 -13.452  1.00  0.00    +0.000 C 
ATOM     36  C23 UNL A   1      26.230  21.419 -12.849  1.00  0.00    +0.000 C 
ATOM    131  H27 UNL A   1      26.530  19.926 -14.303  1.00  0.00    +0.000 H 
ATOM    132  H28 UNL A   1      26.881  22.108 -13.255  1.00  0.00    +0.000 H 
ATOM     37  C24 UNL A   1      25.537  21.682 -11.675  1.00  0.00    +0.000 C 
ATOM    143  H39 UNL A   1      23.884  21.187 -10.454  1.00  0.00    +0.000 H 
ATOM    144  H40 UNL A   1      23.246  19.276 -11.820  1.00  0.00    +0.000 H 
ATOM     95  C63 UNL A   1      24.449  20.907 -11.271  1.00  0.00    +0.000 C 
ATOM     96  C64 UNL A   1      24.139  19.772 -11.969  1.00  0.00    +0.000 C 
BRANCH   34   32
ATOM     33  O7  UNL A   1      24.812  17.123 -13.685  1.00  0.00    +0.000 O 
ATOM     32  C20 UNL A   1      25.430  17.877 -12.942  1.00  0.00    +0.000 C 
BRANCH   32   31
ATOM    130  H26 UNL A   1      26.586  17.502 -11.337  1.00  0.00    +0.000 H 
ATOM     31  N5  UNL A   1      26.587  17.441 -12.320  1.00  0.00    +0.000 N 
BRANCH   31   30
ATOM    129  H25 UNL A   1      27.852  17.263 -13.919  1.00  0.00    +0.000 H 
ATOM     30  C19 UNL A   1      27.804  16.906 -12.911  1.00  0.00    +0.000 C 
ATOM    128  H24 UNL A   1      27.764  15.838 -12.866  1.00  0.00    +0.000 H 
BRANCH   30   29
ATOM     29  C18 UNL A   1      29.065  17.372 -12.207  1.00  0.00    +0.000 C 
ATOM    126  H22 UNL A   1      28.931  18.395 -11.921  1.00  0.00    +0.000 H 
ATOM    127  H23 UNL A   1      29.207  16.721 -11.370  1.00  0.00    +0.000 H 
BRANCH   29   28
ATOM    124  H20 UNL A   1      30.123  16.633 -13.884  1.00  0.00    +0.000 H 
ATOM     28  C17 UNL A   1      30.333  17.275 -13.055  1.00  0.00    +0.000 C 
ATOM    125  H21 UNL A   1      30.573  18.281 -13.329  1.00  0.00    +0.000 H 
BRANCH   28   27
ATOM    122  H18 UNL A   1      31.333  16.582 -11.314  1.00  0.00    +0.000 H 
ATOM     27  C16 UNL A   1      31.581  16.732 -12.344  1.00  0.00    +0.000 C 
ATOM    123  H19 UNL A   1      31.843  15.834 -12.863  1.00  0.00    +0.000 H 
BRANCH   27   26
ATOM    121  H17 UNL A   1      33.554  17.170 -11.767  1.00  0.00    +0.000 H 
ATOM     26  C15 UNL A   1      32.822  17.623 -12.403  1.00  0.00    +0.000 C 
ATOM    120  H16 UNL A   1      32.544  18.606 -12.084  1.00  0.00    +0.000 H 
BRANCH   26   25
ATOM     25  C14 UNL A   1      33.452  17.731 -13.784  1.00  0.00    +0.000 C 
ATOM    118  H14 UNL A   1      34.310  17.092 -13.817  1.00  0.00    +0.000 H 
ATOM    119  H15 UNL A   1      32.708  17.442 -14.496  1.00  0.00    +0.000 H 
BRANCH   25   24
ATOM    117  H13 UNL A   1      34.546  19.149 -14.826  1.00  0.00    +0.000 H 
ATOM     24  N4  UNL A   1      33.866  19.072 -14.118  1.00  0.00    +0.000 N 
BRANCH   24   22
ATOM     22  C13 UNL A   1      33.434  20.249 -13.574  1.00  0.00    +0.000 C 
ATOM     23  O6  UNL A   1      32.346  20.689 -13.955  1.00  0.00    +0.000 O 
BRANCH   22   21
ATOM    115  H11 UNL A   1      33.761  21.930 -12.307  1.00  0.00    +0.000 H 
ATOM    116  H12 UNL A   1      34.585  20.417 -11.820  1.00  0.00    +0.000 H 
ATOM     21  C12 UNL A   1      34.321  21.074 -12.621  1.00  0.00    +0.000 C 
BRANCH   21   20
ATOM    114  H10 UNL A   1      36.332  20.922 -13.082  1.00  0.00    +0.000 H 
ATOM     20  N3  UNL A   1      35.577  21.543 -13.188  1.00  0.00    +0.000 N 
BRANCH   20   18
ATOM     18  C11 UNL A   1      35.877  22.702 -13.840  1.00  0.00    +0.000 C 
ATOM     19  O5  UNL A   1      36.204  23.676 -13.158  1.00  0.00    +0.000 O 
BRANCH   18   17
ATOM     17  C10 UNL A   1      35.809  22.807 -15.373  1.00  0.00    +0.000 C 
ATOM    113  H9  UNL A   1      36.455  22.046 -15.755  1.00  0.00    +0.000 H 
ATOM    112  H8  UNL A   1      36.106  23.796 -15.652  1.00  0.00    +0.000 H 
BRANCH   17   16
ATOM    111  H7  UNL A   1      34.053  21.732 -15.616  1.00  0.00    +0.000 H 
ATOM     16  N2  UNL A   1      34.487  22.550 -15.952  1.00  0.00    +0.000 N 
BRANCH   16   14
ATOM     14  C9  UNL A   1      33.740  23.246 -16.882  1.00  0.00    +0.000 C 
ATOM     15  O4  UNL A   1      33.836  22.932 -18.064  1.00  0.00    +0.000 O 
BRANCH   14   12
ATOM     12  C8  UNL A   1      32.806  24.394 -16.443  1.00  0.00    +0.000 C 
ATOM     13  O3  UNL A   1      32.656  25.324 -17.229  1.00  0.00    +0.000 O 
BRANCH   12   11
ATOM     97  C65 UNL A   1      30.671  24.383 -14.994  1.00  0.00    +0.000 C 
ATOM     98  C66 UNL A   1      29.599  24.327 -15.914  1.00  0.00    +0.000 C 
ATOM     99  C67 UNL A   1      28.284  24.253 -15.458  1.00  0.00    +0.000 C 
ATOM    100  C68 UNL A   1      28.014  24.253 -14.097  1.00  0.00    +0.000 C 
ATOM    101  C69 UNL A   1      29.047  24.337 -13.159  1.00  0.00    +0.000 C 
ATOM    102  C70 UNL A   1      30.373  24.393 -13.626  1.00  0.00    +0.000 C 
ATOM      9  N1  UNL A   1      31.590  24.425 -12.978  1.00  0.00    +0.000 N 
ATOM     10  C6  UNL A   1      32.634  24.447 -13.874  1.00  0.00    +0.000 C 
ATOM     11  C7  UNL A   1      32.104  24.416 -15.152  1.00  0.00    +0.000 C 
ATOM    110  H6  UNL A   1      33.637  24.481 -13.635  1.00  0.00    +0.000 H 
ATOM    145  H41 UNL A   1      29.792  24.340 -16.928  1.00  0.00    +0.000 H 
ATOM    146  H42 UNL A   1      27.507  24.198 -16.136  1.00  0.00    +0.000 H 
ATOM    147  H43 UNL A   1      27.037  24.191 -13.772  1.00  0.00    +0.000 H 
ATOM    148  H44 UNL A   1      28.842  24.356 -12.147  1.00  0.00    +0.000 H 
BRANCH    9    6
ATOM      6  S1  UNL A   1      31.787  24.333 -11.286  1.00  0.00    +0.000 S 
ATOM      7  O1  UNL A   1      30.714  25.129 -10.734  1.00  0.00    +0.000 O 
ATOM      8  O2  UNL A   1      33.187  24.646 -11.037  1.00  0.00    +0.000 O 
BRANCH    6    5
ATOM      2  C2  UNL A   1      31.138  20.055  -9.803  1.00  0.00    +0.000 C 
ATOM      3  C3  UNL A   1      32.154  20.864  -9.281  1.00  0.00    +0.000 C 
ATOM      4  C4  UNL A   1      32.346  22.158  -9.767  1.00  0.00    +0.000 C 
ATOM      5  C5  UNL A   1      31.528  22.649 -10.792  1.00  0.00    +0.000 C 
ATOM    103  C71 UNL A   1      30.539  21.835 -11.347  1.00  0.00    +0.000 C 
ATOM    104  C72 UNL A   1      30.340  20.547 -10.843  1.00  0.00    +0.000 C 
ATOM    108  H4  UNL A   1      32.764  20.501  -8.532  1.00  0.00    +0.000 H 
ATOM    109  H5  UNL A   1      33.091  22.753  -9.372  1.00  0.00    +0.000 H 
ATOM    149  H45 UNL A   1      29.958  22.183 -12.127  1.00  0.00    +0.000 H 
ATOM    150  H46 UNL A   1      29.597  19.952 -11.240  1.00  0.00    +0.000 H 
BRANCH    2    1
ATOM      1  C1  UNL A   1      30.917  18.678  -9.248  1.00  0.00    +0.000 C 
ATOM    106  H2  UNL A   1      30.094  18.695  -8.566  1.00  0.00    +0.000 H 
ATOM    107  H3  UNL A   1      31.799  18.354  -8.735  1.00  0.00    +0.000 H 
ATOM    105  H1  UNL A   1      30.702  18.001 -10.050  1.00  0.00    +0.000 H 
ENDBRANCH    2    1
ENDBRANCH    6    5
ENDBRANCH    9    6
ENDBRANCH   12   11
ENDBRANCH   14   12
ENDBRANCH   16   14
ENDBRANCH   17   16
ENDBRANCH   18   17
ENDBRANCH   20   18
ENDBRANCH   21   20
ENDBRANCH   22   21
ENDBRANCH   24   22
ENDBRANCH   25   24
ENDBRANCH   26   25
ENDBRANCH   27   26
ENDBRANCH   28   27
ENDBRANCH   29   28
ENDBRANCH   30   29
ENDBRANCH   31   30
ENDBRANCH   32   31
ENDBRANCH   34   32
ENDBRANCH   38   37
BRANCH   42   43
ATOM     43  C29 UNL A   1      29.173  23.197  -5.816  1.00  0.00    +0.000 C 
ATOM     44  C30 UNL A   1      30.433  23.255  -6.458  1.00  0.00    +0.000 C 
ATOM     45  F1  UNL A   1      30.551  23.631  -7.737  1.00  0.00    +0.000 F 
ATOM     46  C31 UNL A   1      31.628  22.931  -5.811  1.00  0.00    +0.000 C 
ATOM     47  F2  UNL A   1      32.784  22.996  -6.485  1.00  0.00    +0.000 F 
ATOM     48  C32 UNL A   1      31.621  22.538  -4.491  1.00  0.00    +0.000 C 
ATOM     49  F3  UNL A   1      32.764  22.206  -3.875  1.00  0.00    +0.000 F 
ATOM     50  C33 UNL A   1      30.424  22.520  -3.806  1.00  0.00    +0.000 C 
ATOM     51  F4  UNL A   1      30.403  22.162  -2.514  1.00  0.00    +0.000 F 
ATOM     52  C34 UNL A   1      29.232  22.880  -4.446  1.00  0.00    +0.000 C 
ATOM     53  F5  UNL A   1      28.155  22.962  -3.659  1.00  0.00    +0.000 F 
ENDBRANCH   42   43
BRANCH   59   60
ATOM     65  C43 UNL A   1      22.250  27.029  -2.846  1.00  0.00    +0.000 C 
ATOM     66  F8  UNL A   1      21.684  27.231  -1.650  1.00  0.00    +0.000 F 
ATOM     67  C44 UNL A   1      22.123  25.812  -3.478  1.00  0.00    +0.000 C 
ATOM     68  F9  UNL A   1      21.388  24.839  -2.922  1.00  0.00    +0.000 F 
ATOM     69  C45 UNL A   1      22.742  25.596  -4.707  1.00  0.00    +0.000 C 
ATOM     70  F10 UNL A   1      22.584  24.365  -5.216  1.00  0.00    +0.000 F 
ATOM     60  C40 UNL A   1      23.460  26.609  -5.394  1.00  0.00    +0.000 C 
ATOM     61  C41 UNL A   1      23.497  27.853  -4.744  1.00  0.00    +0.000 C 
ATOM     62  F6  UNL A   1      24.006  28.941  -5.335  1.00  0.00    +0.000 F 
ATOM     63  C42 UNL A   1      22.946  28.043  -3.473  1.00  0.00    +0.000 C 
ATOM     64  F7  UNL A   1      23.071  29.235  -2.872  1.00  0.00    +0.000 F 
ENDBRANCH   59   60
BRANCH   74   75
ATOM     75  C49 UNL A   1      22.161  25.060 -12.313  1.00  0.00    +0.000 C 
ATOM     76  C50 UNL A   1      21.845  25.454 -13.631  1.00  0.00    +0.000 C 
ATOM     77  F11 UNL A   1      21.957  26.744 -13.989  1.00  0.00    +0.000 F 
ATOM     78  C51 UNL A   1      21.560  24.513 -14.619  1.00  0.00    +0.000 C 
ATOM     79  F12 UNL A   1      21.418  24.905 -15.893  1.00  0.00    +0.000 F 
ATOM     80  C52 UNL A   1      21.516  23.168 -14.296  1.00  0.00    +0.000 C 
ATOM     81  F13 UNL A   1      21.353  22.252 -15.260  1.00  0.00    +0.000 F 
ATOM     82  C53 UNL A   1      21.682  22.773 -12.976  1.00  0.00    +0.000 C 
ATOM     83  F14 UNL A   1      21.637  21.468 -12.666  1.00  0.00    +0.000 F 
ATOM     84  C54 UNL A   1      21.999  23.709 -11.988  1.00  0.00    +0.000 C 
ATOM     85  F15 UNL A   1      22.268  23.272 -10.750  1.00  0.00    +0.000 F 
ENDBRANCH   74   75
TORSDOF 25
ENDMDL
MODEL 4
REMARK VINA RESULT:      -7.6     28.028     32.810
ROOT
ATOM    133  H29 UNL A   1      22.469  21.856  -1.730  1.00  0.00    +0.000 H 
ATOM    134  H30 UNL A   1      21.360  23.920  -2.918  1.00  0.00    +0.000 H 
ATOM    135  H31 UNL A   1      20.978  24.410   1.173  1.00  0.00    +0.000 H 
ATOM    136  H32 UNL A   1      18.706  22.799  -4.083  1.00  0.00    +0.000 H 
ATOM    137  H33 UNL A   1      19.560  21.470  -2.066  1.00  0.00    +0.000 H 
ATOM    138  H34 UNL A   1      15.417  21.279  -2.164  1.00  0.00    +0.000 H 
ATOM    139  H35 UNL A   1      16.420  26.962  -3.394  1.00  0.00    +0.000 H 
ATOM    140  H36 UNL A   1      18.595  27.923  -2.407  1.00  0.00    +0.000 H 
ATOM    141  H37 UNL A   1      20.524  19.872   3.045  1.00  0.00    +0.000 H 
ATOM    142  H38 UNL A   1      18.143  19.363   2.212  1.00  0.00    +0.000 H 
ATOM     38  C25 UNL A   1      17.447  21.044  -0.094  1.00  0.00    +0.000 C 
ATOM     39  C26 UNL A   1      18.634  21.032   0.769  1.00  0.00    +0.000 C 
ATOM     40  N6  UNL A   1      19.593  21.879   0.691  1.00  0.00    +0.000 N 
ATOM     41  C27 UNL A   1      20.625  21.397   1.469  1.00  0.00    +0.000 C 
ATOM     42  C28 UNL A   1      21.888  21.837   1.201  1.00  0.00    +0.000 C 
ATOM     54  C35 UNL A   1      21.840  22.804   0.106  1.00  0.00    +0.000 C 
ATOM     55  C36 UNL A   1      22.001  22.646  -1.261  1.00  0.00    +0.000 C 
ATOM     56  C37 UNL A   1      21.409  23.763  -1.899  1.00  0.00    +0.000 C 
ATOM     57  C38 UNL A   1      20.907  24.606  -0.922  1.00  0.00    +0.000 C 
ATOM     58  N7  UNL A   1      21.197  24.020   0.296  1.00  0.00    +0.000 N 
ATOM     59  C39 UNL A   1      20.254  25.904  -0.994  1.00  0.00    +0.000 C 
ATOM     71  C46 UNL A   1      19.065  25.906  -1.667  1.00  0.00    +0.000 C 
ATOM     72  N8  UNL A   1      18.319  24.768  -1.831  1.00  0.00    +0.000 N 
ATOM     73  C47 UNL A   1      17.241  25.053  -2.510  1.00  0.00    +0.000 C 
ATOM     74  C48 UNL A   1      16.209  24.026  -2.904  1.00  0.00    +0.000 C 
ATOM     86  C55 UNL A   1      16.744  22.775  -3.028  1.00  0.00    +0.000 C 
ATOM     87  C56 UNL A   1      18.149  22.492  -3.271  1.00  0.00    +0.000 C 
ATOM     88  C57 UNL A   1      18.582  21.753  -2.235  1.00  0.00    +0.000 C 
ATOM     89  C58 UNL A   1      17.443  21.418  -1.391  1.00  0.00    +0.000 C 
ATOM     90  N9  UNL A   1      16.301  21.711  -2.187  1.00  0.00    +0.000 N 
ATOM     91  C59 UNL A   1      17.157  26.462  -2.872  1.00  0.00    +0.000 C 
ATOM     92  C60 UNL A   1      18.297  26.937  -2.342  1.00  0.00    +0.000 C 
ATOM     93  C61 UNL A   1      20.045  20.347   2.264  1.00  0.00    +0.000 C 
ATOM     94  C62 UNL A   1      18.805  20.069   1.855  1.00  0.00    +0.000 C 
ENDROOT
BRANCH   38   37
ATOM     34  C21 UNL A   1      14.311  19.276   1.914  1.00  0.00    +0.000 C 
ATOM     35  C22 UNL A   1      14.883  18.531   0.871  1.00  0.00    +0.000 C 
ATOM     36  C23 UNL A   1      15.863  19.117   0.087  1.00  0.00    +0.000 C 
ATOM    131  H27 UNL A   1      14.578  17.562   0.691  1.00  0.00    +0.000 H 
ATOM    132  H28 UNL A   1      16.279  18.617  -0.714  1.00  0.00    +0.000 H 
ATOM     37  C24 UNL A   1      16.263  20.402   0.424  1.00  0.00    +0.000 C 
ATOM    143  H39 UNL A   1      15.780  22.187   1.450  1.00  0.00    +0.000 H 
ATOM    144  H40 UNL A   1      13.776  21.249   2.464  1.00  0.00    +0.000 H 
ATOM     95  C63 UNL A   1      15.523  21.199   1.300  1.00  0.00    +0.000 C 
ATOM     96  C64 UNL A   1      14.452  20.656   1.957  1.00  0.00    +0.000 C 
BRANCH   34   32
ATOM     33  O7  UNL A   1      13.261  17.536   3.084  1.00  0.00    +0.000 O 
ATOM     32  C20 UNL A   1      13.997  18.515   3.145  1.00  0.00    +0.000 C 
BRANCH   32   31
ATOM    130  H26 UNL A   1      14.406  19.582   4.801  1.00  0.00    +0.000 H 
ATOM     31  N5  UNL A   1      14.699  18.782   4.306  1.00  0.00    +0.000 N 
BRANCH   31   30
ATOM    129  H25 UNL A   1      15.406  17.160   5.334  1.00  0.00    +0.000 H 
ATOM     30  C19 UNL A   1      15.809  18.052   4.900  1.00  0.00    +0.000 C 
ATOM    128  H24 UNL A   1      16.275  18.679   5.632  1.00  0.00    +0.000 H 
BRANCH   30   29
ATOM     29  C18 UNL A   1      16.856  17.629   3.888  1.00  0.00    +0.000 C 
ATOM    126  H22 UNL A   1      16.541  16.706   3.447  1.00  0.00    +0.000 H 
ATOM    127  H23 UNL A   1      16.935  18.425   3.178  1.00  0.00    +0.000 H 
BRANCH   29   28
ATOM    124  H20 UNL A   1      18.277  16.461   4.934  1.00  0.00    +0.000 H 
ATOM     28  C17 UNL A   1      18.253  17.426   4.474  1.00  0.00    +0.000 C 
ATOM    125  H21 UNL A   1      18.928  17.538   3.652  1.00  0.00    +0.000 H 
BRANCH   28   27
ATOM    122  H18 UNL A   1      19.535  18.993   5.117  1.00  0.00    +0.000 H 
ATOM     27  C16 UNL A   1      18.702  18.457   5.520  1.00  0.00    +0.000 C 
ATOM    123  H19 UNL A   1      17.845  19.067   5.714  1.00  0.00    +0.000 H 
BRANCH   27   26
ATOM    121  H17 UNL A   1      18.488  17.047   7.064  1.00  0.00    +0.000 H 
ATOM     26  C15 UNL A   1      19.122  17.888   6.876  1.00  0.00    +0.000 C 
ATOM    120  H16 UNL A   1      19.019  18.660   7.609  1.00  0.00    +0.000 H 
BRANCH   26   25
ATOM     25  C14 UNL A   1      20.553  17.373   6.924  1.00  0.00    +0.000 C 
ATOM    118  H14 UNL A   1      20.530  16.325   7.138  1.00  0.00    +0.000 H 
ATOM    119  H15 UNL A   1      20.997  17.581   5.974  1.00  0.00    +0.000 H 
BRANCH   25   24
ATOM    117  H13 UNL A   1      21.391  19.010   7.881  1.00  0.00    +0.000 H 
ATOM     24  N4  UNL A   1      21.361  18.028   7.926  1.00  0.00    +0.000 N 
BRANCH   24   22
ATOM     22  C13 UNL A   1      22.090  17.453   8.929  1.00  0.00    +0.000 C 
ATOM     23  O6  UNL A   1      21.820  16.289   9.237  1.00  0.00    +0.000 O 
BRANCH   22   21
ATOM    115  H11 UNL A   1      22.981  19.295   9.521  1.00  0.00    +0.000 H 
ATOM    116  H12 UNL A   1      22.943  18.012  10.770  1.00  0.00    +0.000 H 
ATOM     21  C12 UNL A   1      23.121  18.258   9.744  1.00  0.00    +0.000 C 
BRANCH   21   20
ATOM    114  H10 UNL A   1      24.698  16.966   9.398  1.00  0.00    +0.000 H 
ATOM     20  N3  UNL A   1      24.514  17.928   9.486  1.00  0.00    +0.000 N 
BRANCH   20   18
ATOM     18  C11 UNL A   1      25.606  18.733   9.350  1.00  0.00    +0.000 C 
ATOM     19  O5  UNL A   1      26.486  18.657  10.211  1.00  0.00    +0.000 O 
BRANCH   18   17
ATOM     17  C10 UNL A   1      25.744  19.713   8.172  1.00  0.00    +0.000 C 
ATOM    113  H9  UNL A   1      26.456  20.449   8.478  1.00  0.00    +0.000 H 
ATOM    112  H8  UNL A   1      24.776  20.119   7.963  1.00  0.00    +0.000 H 
BRANCH   17   16
ATOM    111  H7  UNL A   1      26.948  19.674   6.486  1.00  0.00    +0.000 H 
ATOM     16  N2  UNL A   1      26.266  19.124   6.936  1.00  0.00    +0.000 N 
BRANCH   16   14
ATOM     14  C9  UNL A   1      25.976  17.940   6.288  1.00  0.00    +0.000 C 
ATOM     15  O4  UNL A   1      26.834  17.064   6.256  1.00  0.00    +0.000 O 
BRANCH   14   12
ATOM     12  C8  UNL A   1      24.602  17.726   5.616  1.00  0.00    +0.000 C 
ATOM     13  O3  UNL A   1      23.751  18.591   5.798  1.00  0.00    +0.000 O 
BRANCH   12   11
ATOM     97  C65 UNL A   1      23.890  15.267   5.296  1.00  0.00    +0.000 C 
ATOM     98  C66 UNL A   1      23.706  14.761   6.603  1.00  0.00    +0.000 C 
ATOM     99  C67 UNL A   1      23.261  13.453   6.795  1.00  0.00    +0.000 C 
ATOM    100  C68 UNL A   1      23.012  12.632   5.705  1.00  0.00    +0.000 C 
ATOM    101  C69 UNL A   1      23.211  13.089   4.399  1.00  0.00    +0.000 C 
ATOM    102  C70 UNL A   1      23.643  14.415   4.212  1.00  0.00    +0.000 C 
ATOM      9  N1  UNL A   1      23.874  15.170   3.082  1.00  0.00    +0.000 N 
ATOM     10  C6  UNL A   1      24.264  16.449   3.405  1.00  0.00    +0.000 C 
ATOM     11  C7  UNL A   1      24.282  16.557   4.785  1.00  0.00    +0.000 C 
ATOM    110  H6  UNL A   1      24.502  17.198   2.736  1.00  0.00    +0.000 H 
ATOM    145  H41 UNL A   1      23.902  15.363   7.418  1.00  0.00    +0.000 H 
ATOM    146  H42 UNL A   1      23.116  13.096   7.752  1.00  0.00    +0.000 H 
ATOM    147  H43 UNL A   1      22.677  11.668   5.861  1.00  0.00    +0.000 H 
ATOM    148  H44 UNL A   1      23.043  12.469   3.591  1.00  0.00    +0.000 H 
BRANCH    9    6
ATOM      6  S1  UNL A   1      23.602  14.630   1.486  1.00  0.00    +0.000 S 
ATOM      7  O1  UNL A   1      24.110  13.278   1.450  1.00  0.00    +0.000 O 
ATOM      8  O2  UNL A   1      24.132  15.678   0.623  1.00  0.00    +0.000 O 
BRANCH    6    5
ATOM      2  C2  UNL A   1      19.079  14.681   0.806  1.00  0.00    +0.000 C 
ATOM      3  C3  UNL A   1      19.678  15.460   1.803  1.00  0.00    +0.000 C 
ATOM      4  C4  UNL A   1      21.057  15.409   2.006  1.00  0.00    +0.000 C 
ATOM      5  C5  UNL A   1      21.849  14.564   1.218  1.00  0.00    +0.000 C 
ATOM    103  C71 UNL A   1      21.256  13.752   0.250  1.00  0.00    +0.000 C 
ATOM    104  C72 UNL A   1      19.876  13.823   0.039  1.00  0.00    +0.000 C 
ATOM    108  H4  UNL A   1      19.095  16.077   2.391  1.00  0.00    +0.000 H 
ATOM    109  H5  UNL A   1      21.494  15.994   2.736  1.00  0.00    +0.000 H 
ATOM    149  H45 UNL A   1      21.835  13.104  -0.308  1.00  0.00    +0.000 H 
ATOM    150  H46 UNL A   1      19.440  13.236  -0.689  1.00  0.00    +0.000 H 
BRANCH    2    1
ATOM      1  C1  UNL A   1      17.599  14.770   0.573  1.00  0.00    +0.000 C 
ATOM    106  H2  UNL A   1      17.350  15.751   0.227  1.00  0.00    +0.000 H 
ATOM    107  H3  UNL A   1      17.081  14.572   1.488  1.00  0.00    +0.000 H 
ATOM    105  H1  UNL A   1      17.310  14.048  -0.163  1.00  0.00    +0.000 H 
ENDBRANCH    2    1
ENDBRANCH    6    5
ENDBRANCH    9    6
ENDBRANCH   12   11
ENDBRANCH   14   12
ENDBRANCH   16   14
ENDBRANCH   17   16
ENDBRANCH   18   17
ENDBRANCH   20   18
ENDBRANCH   21   20
ENDBRANCH   22   21
ENDBRANCH   24   22
ENDBRANCH   25   24
ENDBRANCH   26   25
ENDBRANCH   27   26
ENDBRANCH   28   27
ENDBRANCH   29   28
ENDBRANCH   30   29
ENDBRANCH   31   30
ENDBRANCH   32   31
ENDBRANCH   34   32
ENDBRANCH   38   37
BRANCH   42   43
ATOM     43  C29 UNL A   1      23.170  21.181   1.664  1.00  0.00    +0.000 C 
ATOM     44  C30 UNL A   1      23.766  20.167   0.879  1.00  0.00    +0.000 C 
ATOM     45  F1  UNL A   1      23.294  19.849  -0.333  1.00  0.00    +0.000 F 
ATOM     46  C31 UNL A   1      24.878  19.436   1.304  1.00  0.00    +0.000 C 
ATOM     47  F2  UNL A   1      25.385  18.481   0.513  1.00  0.00    +0.000 F 
ATOM     48  C32 UNL A   1      25.450  19.687   2.532  1.00  0.00    +0.000 C 
ATOM     49  F3  UNL A   1      26.502  18.973   2.950  1.00  0.00    +0.000 F 
ATOM     50  C33 UNL A   1      24.937  20.704   3.310  1.00  0.00    +0.000 C 
ATOM     51  F4  UNL A   1      25.496  20.977   4.498  1.00  0.00    +0.000 F 
ATOM     52  C34 UNL A   1      23.845  21.460   2.867  1.00  0.00    +0.000 C 
ATOM     53  F5  UNL A   1      23.518  22.506   3.631  1.00  0.00    +0.000 F 
ENDBRANCH   42   43
BRANCH   59   60
ATOM     65  C43 UNL A   1      22.507  29.256   0.652  1.00  0.00    +0.000 C 
ATOM     66  F8  UNL A   1      23.221  30.263   1.171  1.00  0.00    +0.000 F 
ATOM     67  C44 UNL A   1      23.005  28.522  -0.400  1.00  0.00    +0.000 C 
ATOM     68  F9  UNL A   1      24.231  28.777  -0.878  1.00  0.00    +0.000 F 
ATOM     69  C45 UNL A   1      22.244  27.497  -0.958  1.00  0.00    +0.000 C 
ATOM     70  F10 UNL A   1      22.809  26.870  -2.000  1.00  0.00    +0.000 F 
ATOM     60  C40 UNL A   1      20.977  27.115  -0.445  1.00  0.00    +0.000 C 
ATOM     61  C41 UNL A   1      20.547  27.845   0.675  1.00  0.00    +0.000 C 
ATOM     62  F6  UNL A   1      19.447  27.503   1.358  1.00  0.00    +0.000 F 
ATOM     63  C42 UNL A   1      21.275  28.926   1.181  1.00  0.00    +0.000 C 
ATOM     64  F7  UNL A   1      20.781  29.629   2.210  1.00  0.00    +0.000 F 
ENDBRANCH   59   60
BRANCH   74   75
ATOM     75  C49 UNL A   1      14.793  23.991  -2.436  1.00  0.00    +0.000 C 
ATOM     76  C50 UNL A   1      14.550  24.313  -1.083  1.00  0.00    +0.000 C 
ATOM     77  F11 UNL A   1      15.535  24.184  -0.179  1.00  0.00    +0.000 F 
ATOM     78  C51 UNL A   1      13.355  24.907  -0.685  1.00  0.00    +0.000 C 
ATOM     79  F12 UNL A   1      13.214  25.344   0.575  1.00  0.00    +0.000 F 
ATOM     80  C52 UNL A   1      12.352  25.126  -1.613  1.00  0.00    +0.000 C 
ATOM     81  F13 UNL A   1      11.246  25.795  -1.260  1.00  0.00    +0.000 F 
ATOM     82  C53 UNL A   1      12.516  24.684  -2.918  1.00  0.00    +0.000 C 
ATOM     83  F14 UNL A   1      11.541  24.897  -3.816  1.00  0.00    +0.000 F 
ATOM     84  C54 UNL A   1      13.725  24.118  -3.331  1.00  0.00    +0.000 C 
ATOM     85  F15 UNL A   1      13.885  23.814  -4.627  1.00  0.00    +0.000 F 
ENDBRANCH   74   75
TORSDOF 25
ENDMDL
MODEL 5
REMARK VINA RESULT:      -7.6     27.555     31.203
ROOT
ATOM    133  H29 UNL A   1      18.727  15.570   6.884  1.00  0.00    +0.000 H 
ATOM    134  H30 UNL A   1      21.300  15.050   7.006  1.00  0.00    +0.000 H 
ATOM    135  H31 UNL A   1      20.629  18.728   8.779  1.00  0.00    +0.000 H 
ATOM    136  H32 UNL A   1      22.304  15.467   4.095  1.00  0.00    +0.000 H 
ATOM    137  H33 UNL A   1      20.183  16.801   4.628  1.00  0.00    +0.000 H 
ATOM    138  H34 UNL A   1      22.413  18.865   1.803  1.00  0.00    +0.000 H 
ATOM    139  H35 UNL A   1      26.569  17.080   5.592  1.00  0.00    +0.000 H 
ATOM    140  H36 UNL A   1      25.768  16.764   8.018  1.00  0.00    +0.000 H 
ATOM    141  H37 UNL A   1      16.839  20.735   6.347  1.00  0.00    +0.000 H 
ATOM    142  H38 UNL A   1      18.055  21.272   4.143  1.00  0.00    +0.000 H 
ATOM     38  C25 UNL A   1      20.445  19.596   3.817  1.00  0.00    +0.000 C 
ATOM     39  C26 UNL A   1      19.498  19.720   4.931  1.00  0.00    +0.000 C 
ATOM     40  N6  UNL A   1      19.627  19.126   6.060  1.00  0.00    +0.000 N 
ATOM     41  C27 UNL A   1      18.434  19.276   6.737  1.00  0.00    +0.000 C 
ATOM     42  C28 UNL A   1      18.138  18.378   7.718  1.00  0.00    +0.000 C 
ATOM     54  C35 UNL A   1      19.242  17.430   7.855  1.00  0.00    +0.000 C 
ATOM     55  C36 UNL A   1      19.452  16.184   7.287  1.00  0.00    +0.000 C 
ATOM     56  C37 UNL A   1      20.838  15.901   7.360  1.00  0.00    +0.000 C 
ATOM     57  C38 UNL A   1      21.465  16.965   7.988  1.00  0.00    +0.000 C 
ATOM     58  N7  UNL A   1      20.478  17.879   8.303  1.00  0.00    +0.000 N 
ATOM     59  C39 UNL A   1      22.848  17.192   8.373  1.00  0.00    +0.000 C 
ATOM     71  C46 UNL A   1      23.732  17.230   7.331  1.00  0.00    +0.000 C 
ATOM     72  N8  UNL A   1      23.334  17.519   6.051  1.00  0.00    +0.000 N 
ATOM     73  C47 UNL A   1      24.371  17.484   5.259  1.00  0.00    +0.000 C 
ATOM     74  C48 UNL A   1      24.293  17.719   3.771  1.00  0.00    +0.000 C 
ATOM     86  C55 UNL A   1      23.072  17.385   3.259  1.00  0.00    +0.000 C 
ATOM     87  C56 UNL A   1      22.134  16.461   3.877  1.00  0.00    +0.000 C 
ATOM     88  C57 UNL A   1      21.005  17.151   4.111  1.00  0.00    +0.000 C 
ATOM     89  C58 UNL A   1      21.134  18.474   3.516  1.00  0.00    +0.000 C 
ATOM     90  N9  UNL A   1      22.249  18.372   2.639  1.00  0.00    +0.000 N 
ATOM     91  C59 UNL A   1      25.608  17.165   5.961  1.00  0.00    +0.000 C 
ATOM     92  C60 UNL A   1      25.162  17.011   7.220  1.00  0.00    +0.000 C 
ATOM     93  C61 UNL A   1      17.714  20.296   6.020  1.00  0.00    +0.000 C 
ATOM     94  C62 UNL A   1      18.331  20.598   4.874  1.00  0.00    +0.000 C 
ENDROOT
BRANCH   38   37
ATOM     34  C21 UNL A   1      20.693  22.279   0.699  1.00  0.00    +0.000 C 
ATOM     35  C22 UNL A   1      21.378  22.625   1.874  1.00  0.00    +0.000 C 
ATOM     36  C23 UNL A   1      21.239  21.820   2.993  1.00  0.00    +0.000 C 
ATOM    131  H27 UNL A   1      21.975  23.465   1.904  1.00  0.00    +0.000 H 
ATOM    132  H28 UNL A   1      21.692  22.061   3.887  1.00  0.00    +0.000 H 
ATOM     37  C24 UNL A   1      20.465  20.675   2.860  1.00  0.00    +0.000 C 
ATOM    143  H39 UNL A   1      18.969  19.677   1.748  1.00  0.00    +0.000 H 
ATOM    144  H40 UNL A   1      18.911  21.373   0.004  1.00  0.00    +0.000 H 
ATOM     95  C63 UNL A   1      19.614  20.483   1.771  1.00  0.00    +0.000 C 
ATOM     96  C64 UNL A   1      19.642  21.373   0.732  1.00  0.00    +0.000 C 
BRANCH   34   32
ATOM     33  O7  UNL A   1      21.781  23.674  -0.842  1.00  0.00    +0.000 O 
ATOM     32  C20 UNL A   1      21.425  22.534  -0.564  1.00  0.00    +0.000 C 
BRANCH   32   31
ATOM    130  H26 UNL A   1      22.256  20.714  -0.788  1.00  0.00    +0.000 H 
ATOM     31  N5  UNL A   1      21.885  21.463  -1.309  1.00  0.00    +0.000 N 
BRANCH   31   30
ATOM    129  H25 UNL A   1      22.241  22.203  -3.184  1.00  0.00    +0.000 H 
ATOM     30  C19 UNL A   1      21.899  21.284  -2.753  1.00  0.00    +0.000 C 
ATOM    128  H24 UNL A   1      20.909  21.035  -3.075  1.00  0.00    +0.000 H 
BRANCH   30   29
ATOM     29  C18 UNL A   1      22.846  20.191  -3.211  1.00  0.00    +0.000 C 
ATOM    126  H22 UNL A   1      22.524  19.267  -2.777  1.00  0.00    +0.000 H 
ATOM    127  H23 UNL A   1      22.812  20.184  -4.280  1.00  0.00    +0.000 H 
BRANCH   29   28
ATOM    124  H20 UNL A   1      24.402  21.432  -2.494  1.00  0.00    +0.000 H 
ATOM     28  C17 UNL A   1      24.307  20.419  -2.822  1.00  0.00    +0.000 C 
ATOM    125  H21 UNL A   1      24.520  19.691  -2.068  1.00  0.00    +0.000 H 
BRANCH   28   27
ATOM    122  H18 UNL A   1      26.041  19.453  -3.576  1.00  0.00    +0.000 H 
ATOM     27  C16 UNL A   1      25.344  20.183  -3.929  1.00  0.00    +0.000 C 
ATOM    123  H19 UNL A   1      24.787  19.871  -4.788  1.00  0.00    +0.000 H 
BRANCH   27   26
ATOM    121  H17 UNL A   1      26.529  21.860  -3.481  1.00  0.00    +0.000 H 
ATOM     26  C15 UNL A   1      26.137  21.413  -4.371  1.00  0.00    +0.000 C 
ATOM    120  H16 UNL A   1      25.477  22.062  -4.907  1.00  0.00    +0.000 H 
BRANCH   26   25
ATOM     25  C14 UNL A   1      27.330  21.104  -5.264  1.00  0.00    +0.000 C 
ATOM    118  H14 UNL A   1      28.179  21.643  -4.897  1.00  0.00    +0.000 H 
ATOM    119  H15 UNL A   1      27.482  20.045  -5.235  1.00  0.00    +0.000 H 
BRANCH   25   24
ATOM    117  H13 UNL A   1      26.183  21.619  -6.912  1.00  0.00    +0.000 H 
ATOM     24  N4  UNL A   1      27.118  21.468  -6.645  1.00  0.00    +0.000 N 
BRANCH   24   22
ATOM     22  C13 UNL A   1      28.053  21.629  -7.628  1.00  0.00    +0.000 C 
ATOM     23  O6  UNL A   1      28.621  20.617  -8.047  1.00  0.00    +0.000 O 
BRANCH   22   21
ATOM    115  H11 UNL A   1      29.558  23.068  -8.075  1.00  0.00    +0.000 H 
ATOM    116  H12 UNL A   1      28.087  23.139  -9.094  1.00  0.00    +0.000 H 
ATOM     21  C12 UNL A   1      28.490  23.026  -8.109  1.00  0.00    +0.000 C 
BRANCH   21   20
ATOM    114  H10 UNL A   1      28.156  24.093  -6.368  1.00  0.00    +0.000 H 
ATOM     20  N3  UNL A   1      27.972  24.143  -7.333  1.00  0.00    +0.000 N 
BRANCH   20   18
ATOM     18  C11 UNL A   1      27.271  25.245  -7.725  1.00  0.00    +0.000 C 
ATOM     19  O5  UNL A   1      27.460  26.295  -7.104  1.00  0.00    +0.000 O 
BRANCH   18   17
ATOM     17  C10 UNL A   1      26.272  25.193  -8.893  1.00  0.00    +0.000 C 
ATOM    113  H9  UNL A   1      25.491  24.529  -8.589  1.00  0.00    +0.000 H 
ATOM    112  H8  UNL A   1      26.797  24.862  -9.764  1.00  0.00    +0.000 H 
BRANCH   17   16
ATOM    111  H7  UNL A   1      26.113  27.013  -9.870  1.00  0.00    +0.000 H 
ATOM     16  N2  UNL A   1      25.625  26.469  -9.210  1.00  0.00    +0.000 N 
BRANCH   16   14
ATOM     14  C9  UNL A   1      24.457  27.048  -8.752  1.00  0.00    +0.000 C 
ATOM     15  O4  UNL A   1      23.431  26.892  -9.405  1.00  0.00    +0.000 O 
BRANCH   14   12
ATOM     12  C8  UNL A   1      24.447  27.873  -7.448  1.00  0.00    +0.000 C 
ATOM     13  O3  UNL A   1      25.200  28.840  -7.393  1.00  0.00    +0.000 O 
BRANCH   12   11
ATOM     97  C65 UNL A   1      23.520  26.269  -5.653  1.00  0.00    +0.000 C 
ATOM     98  C66 UNL A   1      24.173  25.036  -5.885  1.00  0.00    +0.000 C 
ATOM     99  C67 UNL A   1      23.938  23.947  -5.045  1.00  0.00    +0.000 C 
ATOM    100  C68 UNL A   1      23.048  24.059  -3.987  1.00  0.00    +0.000 C 
ATOM    101  C69 UNL A   1      22.364  25.252  -3.745  1.00  0.00    +0.000 C 
ATOM    102  C70 UNL A   1      22.618  26.353  -4.585  1.00  0.00    +0.000 C 
ATOM      9  N1  UNL A   1      22.162  27.654  -4.581  1.00  0.00    +0.000 N 
ATOM     10  C6  UNL A   1      22.725  28.384  -5.602  1.00  0.00    +0.000 C 
ATOM     11  C7  UNL A   1      23.590  27.557  -6.297  1.00  0.00    +0.000 C 
ATOM    110  H6  UNL A   1      22.536  29.377  -5.813  1.00  0.00    +0.000 H 
ATOM    145  H41 UNL A   1      24.825  24.943  -6.679  1.00  0.00    +0.000 H 
ATOM    146  H42 UNL A   1      24.429  23.055  -5.213  1.00  0.00    +0.000 H 
ATOM    147  H43 UNL A   1      22.889  23.247  -3.370  1.00  0.00    +0.000 H 
ATOM    148  H44 UNL A   1      21.687  25.326  -2.968  1.00  0.00    +0.000 H 
BRANCH    9    6
ATOM      6  S1  UNL A   1      21.121  28.311  -3.400  1.00  0.00    +0.000 S 
ATOM      7  O1  UNL A   1      19.838  27.690  -3.635  1.00  0.00    +0.000 O 
ATOM      8  O2  UNL A   1      21.307  29.754  -3.473  1.00  0.00    +0.000 O 
BRANCH    6    5
ATOM      2  C2  UNL A   1      22.504  26.768   0.678  1.00  0.00    +0.000 C 
ATOM      3  C3  UNL A   1      21.180  26.622   0.252  1.00  0.00    +0.000 C 
ATOM      4  C4  UNL A   1      20.777  27.122  -0.987  1.00  0.00    +0.000 C 
ATOM      5  C5  UNL A   1      21.698  27.787  -1.806  1.00  0.00    +0.000 C 
ATOM    103  C71 UNL A   1      23.011  27.974  -1.371  1.00  0.00    +0.000 C 
ATOM    104  C72 UNL A   1      23.413  27.454  -0.137  1.00  0.00    +0.000 C 
ATOM    108  H4  UNL A   1      20.496  26.141   0.858  1.00  0.00    +0.000 H 
ATOM    109  H5  UNL A   1      19.801  27.003  -1.300  1.00  0.00    +0.000 H 
ATOM    149  H45 UNL A   1      23.683  28.494  -1.959  1.00  0.00    +0.000 H 
ATOM    150  H46 UNL A   1      24.388  27.576   0.176  1.00  0.00    +0.000 H 
BRANCH    2    1
ATOM      1  C1  UNL A   1      22.935  26.196   1.997  1.00  0.00    +0.000 C 
ATOM    106  H2  UNL A   1      23.751  25.521   1.845  1.00  0.00    +0.000 H 
ATOM    107  H3  UNL A   1      22.116  25.670   2.443  1.00  0.00    +0.000 H 
ATOM    105  H1  UNL A   1      23.245  26.989   2.646  1.00  0.00    +0.000 H 
ENDBRANCH    2    1
ENDBRANCH    6    5
ENDBRANCH    9    6
ENDBRANCH   12   11
ENDBRANCH   14   12
ENDBRANCH   16   14
ENDBRANCH   17   16
ENDBRANCH   18   17
ENDBRANCH   20   18
ENDBRANCH   21   20
ENDBRANCH   22   21
ENDBRANCH   24   22
ENDBRANCH   25   24
ENDBRANCH   26   25
ENDBRANCH   27   26
ENDBRANCH   28   27
ENDBRANCH   29   28
ENDBRANCH   30   29
ENDBRANCH   31   30
ENDBRANCH   32   31
ENDBRANCH   34   32
ENDBRANCH   38   37
BRANCH   42   43
ATOM     43  C29 UNL A   1      16.768  18.137   8.313  1.00  0.00    +0.000 C 
ATOM     44  C30 UNL A   1      16.507  18.504   9.654  1.00  0.00    +0.000 C 
ATOM     45  F1  UNL A   1      17.406  19.175  10.385  1.00  0.00    +0.000 F 
ATOM     46  C31 UNL A   1      15.308  18.199  10.302  1.00  0.00    +0.000 C 
ATOM     47  F2  UNL A   1      15.133  18.567  11.579  1.00  0.00    +0.000 F 
ATOM     48  C32 UNL A   1      14.311  17.517   9.640  1.00  0.00    +0.000 C 
ATOM     49  F3  UNL A   1      13.169  17.205  10.267  1.00  0.00    +0.000 F 
ATOM     50  C33 UNL A   1      14.497  17.187   8.314  1.00  0.00    +0.000 C 
ATOM     51  F4  UNL A   1      13.527  16.544   7.648  1.00  0.00    +0.000 F 
ATOM     52  C34 UNL A   1      15.685  17.525   7.655  1.00  0.00    +0.000 C 
ATOM     53  F5  UNL A   1      15.706  17.283   6.341  1.00  0.00    +0.000 F 
ENDBRANCH   42   43
BRANCH   59   60
ATOM     65  C43 UNL A   1      24.063  17.388  12.558  1.00  0.00    +0.000 C 
ATOM     66  F8  UNL A   1      24.470  17.452  13.832  1.00  0.00    +0.000 F 
ATOM     67  C44 UNL A   1      24.121  18.504  11.754  1.00  0.00    +0.000 C 
ATOM     68  F9  UNL A   1      24.633  19.649  12.228  1.00  0.00    +0.000 F 
ATOM     69  C45 UNL A   1      23.666  18.442  10.439  1.00  0.00    +0.000 C 
ATOM     70  F10 UNL A   1      23.735  19.595   9.756  1.00  0.00    +0.000 F 
ATOM     60  C40 UNL A   1      23.196  17.242   9.845  1.00  0.00    +0.000 C 
ATOM     61  C41 UNL A   1      23.227  16.116  10.683  1.00  0.00    +0.000 C 
ATOM     62  F6  UNL A   1      22.956  14.888  10.222  1.00  0.00    +0.000 F 
ATOM     63  C42 UNL A   1      23.605  16.199  12.026  1.00  0.00    +0.000 C 
ATOM     64  F7  UNL A   1      23.550  15.103  12.796  1.00  0.00    +0.000 F 
ENDBRANCH   59   60
BRANCH   74   75
ATOM     75  C49 UNL A   1      24.923  18.853   3.035  1.00  0.00    +0.000 C 
ATOM     76  C50 UNL A   1      24.779  20.144   3.586  1.00  0.00    +0.000 C 
ATOM     77  F11 UNL A   1      23.761  20.402   4.424  1.00  0.00    +0.000 F 
ATOM     78  C51 UNL A   1      25.753  21.122   3.403  1.00  0.00    +0.000 C 
ATOM     79  F12 UNL A   1      25.667  22.284   4.066  1.00  0.00    +0.000 F 
ATOM     80  C52 UNL A   1      26.855  20.856   2.608  1.00  0.00    +0.000 C 
ATOM     81  F13 UNL A   1      27.848  21.750   2.517  1.00  0.00    +0.000 F 
ATOM     82  C53 UNL A   1      26.943  19.642   1.940  1.00  0.00    +0.000 C 
ATOM     83  F14 UNL A   1      28.011  19.388   1.169  1.00  0.00    +0.000 F 
ATOM     84  C54 UNL A   1      25.984  18.646   2.146  1.00  0.00    +0.000 C 
ATOM     85  F15 UNL A   1      26.169  17.447   1.576  1.00  0.00    +0.000 F 
ENDBRANCH   74   75
TORSDOF 25
ENDMDL
MODEL 6
REMARK VINA RESULT:      -7.5     42.598     45.896
ROOT
ATOM    133  H29 UNL A   1      18.664  37.636  45.633  1.00  0.00    +0.000 H 
ATOM    134  H30 UNL A   1      20.013  36.217  43.881  1.00  0.00    +0.000 H 
ATOM    135  H31 UNL A   1      19.007  33.758  47.053  1.00  0.00    +0.000 H 
ATOM    136  H32 UNL A   1      22.948  37.186  44.207  1.00  0.00    +0.000 H 
ATOM    137  H33 UNL A   1      21.535  37.527  46.318  1.00  0.00    +0.000 H 
ATOM    138  H34 UNL A   1      25.484  36.885  47.415  1.00  0.00    +0.000 H 
ATOM    139  H35 UNL A   1      24.702  32.835  43.196  1.00  0.00    +0.000 H 
ATOM    140  H36 UNL A   1      22.284  31.989  42.933  1.00  0.00    +0.000 H 
ATOM    141  H37 UNL A   1      19.012  36.636  51.055  1.00  0.00    +0.000 H 
ATOM    142  H38 UNL A   1      21.553  36.980  51.262  1.00  0.00    +0.000 H 
ATOM     38  C25 UNL A   1      22.898  36.510  48.694  1.00  0.00    +0.000 C 
ATOM     39  C26 UNL A   1      21.495  36.351  49.092  1.00  0.00    +0.000 C 
ATOM     40  N6  UNL A   1      20.579  35.863  48.338  1.00  0.00    +0.000 N 
ATOM     41  C27 UNL A   1      19.370  36.112  48.953  1.00  0.00    +0.000 C 
ATOM     42  C28 UNL A   1      18.249  36.126  48.178  1.00  0.00    +0.000 C 
ATOM     54  C35 UNL A   1      18.613  35.817  46.797  1.00  0.00    +0.000 C 
ATOM     55  C36 UNL A   1      18.918  36.640  45.725  1.00  0.00    +0.000 C 
ATOM     56  C37 UNL A   1      19.639  35.872  44.779  1.00  0.00    +0.000 C 
ATOM     57  C38 UNL A   1      19.755  34.580  45.265  1.00  0.00    +0.000 C 
ATOM     58  N7  UNL A   1      19.106  34.556  46.485  1.00  0.00    +0.000 N 
ATOM     59  C39 UNL A   1      20.339  33.375  44.702  1.00  0.00    +0.000 C 
ATOM     71  C46 UNL A   1      21.683  33.451  44.462  1.00  0.00    +0.000 C 
ATOM     72  N8  UNL A   1      22.489  34.347  45.115  1.00  0.00    +0.000 N 
ATOM     73  C47 UNL A   1      23.716  34.208  44.696  1.00  0.00    +0.000 C 
ATOM     74  C48 UNL A   1      24.864  35.061  45.178  1.00  0.00    +0.000 C 
ATOM     86  C55 UNL A   1      24.453  36.297  45.589  1.00  0.00    +0.000 C 
ATOM     87  C56 UNL A   1      23.219  36.944  45.173  1.00  0.00    +0.000 C 
ATOM     88  C57 UNL A   1      22.501  37.166  46.287  1.00  0.00    +0.000 C 
ATOM     89  C58 UNL A   1      23.313  36.812  47.444  1.00  0.00    +0.000 C 
ATOM     90  N9  UNL A   1      24.639  36.710  46.942  1.00  0.00    +0.000 N 
ATOM     91  C59 UNL A   1      23.856  33.163  43.689  1.00  0.00    +0.000 C 
ATOM     92  C60 UNL A   1      22.585  32.738  43.577  1.00  0.00    +0.000 C 
ATOM     93  C61 UNL A   1      19.700  36.507  50.297  1.00  0.00    +0.000 C 
ATOM     94  C62 UNL A   1      21.017  36.685  50.432  1.00  0.00    +0.000 C 
ENDROOT
BRANCH   38   37
ATOM     34  C21 UNL A   1      26.016  36.960  51.351  1.00  0.00    +0.000 C 
ATOM     35  C22 UNL A   1      25.558  35.650  51.143  1.00  0.00    +0.000 C 
ATOM     36  C23 UNL A   1      24.441  35.447  50.350  1.00  0.00    +0.000 C 
ATOM    131  H27 UNL A   1      26.046  34.850  51.574  1.00  0.00    +0.000 H 
ATOM    132  H28 UNL A   1      24.049  34.504  50.205  1.00  0.00    +0.000 H 
ATOM     37  C24 UNL A   1      23.872  36.565  49.757  1.00  0.00    +0.000 C 
ATOM    143  H39 UNL A   1      23.677  38.671  49.785  1.00  0.00    +0.000 H 
ATOM    144  H40 UNL A   1      25.344  38.959  51.536  1.00  0.00    +0.000 H 
ATOM     95  C63 UNL A   1      24.193  37.861  50.165  1.00  0.00    +0.000 C 
ATOM     96  C64 UNL A   1      25.199  38.047  51.074  1.00  0.00    +0.000 C 
BRANCH   34   32
ATOM     33  O7  UNL A   1      28.013  37.588  52.408  1.00  0.00    +0.000 O 
ATOM     32  C20 UNL A   1      27.487  37.121  51.404  1.00  0.00    +0.000 C 
BRANCH   32   31
ATOM    130  H26 UNL A   1      28.209  35.570  50.344  1.00  0.00    +0.000 H 
ATOM     31  N5  UNL A   1      28.268  36.551  50.415  1.00  0.00    +0.000 N 
BRANCH   31   30
ATOM    129  H25 UNL A   1      29.353  36.487  48.681  1.00  0.00    +0.000 H 
ATOM     30  C19 UNL A   1      29.163  37.192  49.464  1.00  0.00    +0.000 C 
ATOM    128  H24 UNL A   1      30.059  37.473  49.976  1.00  0.00    +0.000 H 
BRANCH   30   29
ATOM     29  C18 UNL A   1      28.565  38.430  48.821  1.00  0.00    +0.000 C 
ATOM    126  H22 UNL A   1      28.031  38.127  47.944  1.00  0.00    +0.000 H 
ATOM    127  H23 UNL A   1      27.935  38.882  49.558  1.00  0.00    +0.000 H 
BRANCH   29   28
ATOM    124  H20 UNL A   1      30.119  39.785  49.297  1.00  0.00    +0.000 H 
ATOM     28  C17 UNL A   1      29.591  39.487  48.415  1.00  0.00    +0.000 C 
ATOM    125  H21 UNL A   1      30.204  39.022  47.673  1.00  0.00    +0.000 H 
BRANCH   28   27
ATOM    122  H18 UNL A   1      28.041  40.910  48.130  1.00  0.00    +0.000 H 
ATOM     27  C16 UNL A   1      29.030  40.754  47.753  1.00  0.00    +0.000 C 
ATOM    123  H19 UNL A   1      29.716  41.538  47.997  1.00  0.00    +0.000 H 
BRANCH   27   26
ATOM    121  H17 UNL A   1      29.312  39.768  45.919  1.00  0.00    +0.000 H 
ATOM     26  C15 UNL A   1      28.952  40.729  46.227  1.00  0.00    +0.000 C 
ATOM    120  H16 UNL A   1      29.542  41.536  45.848  1.00  0.00    +0.000 H 
BRANCH   26   25
ATOM     25  C14 UNL A   1      27.543  40.865  45.668  1.00  0.00    +0.000 C 
ATOM    118  H14 UNL A   1      27.199  41.862  45.851  1.00  0.00    +0.000 H 
ATOM    119  H15 UNL A   1      27.593  40.643  44.623  1.00  0.00    +0.000 H 
BRANCH   25   24
ATOM    117  H13 UNL A   1      26.911  39.009  46.338  1.00  0.00    +0.000 H 
ATOM     24  N4  UNL A   1      26.605  39.940  46.258  1.00  0.00    +0.000 N 
BRANCH   24   22
ATOM     22  C13 UNL A   1      25.344  40.197  46.717  1.00  0.00    +0.000 C 
ATOM     23  O6  UNL A   1      24.403  40.006  45.941  1.00  0.00    +0.000 O 
BRANCH   22   21
ATOM    115  H11 UNL A   1      24.856  40.043  48.785  1.00  0.00    +0.000 H 
ATOM    116  H12 UNL A   1      25.999  41.351  48.351  1.00  0.00    +0.000 H 
ATOM     21  C12 UNL A   1      25.099  40.829  48.101  1.00  0.00    +0.000 C 
BRANCH   21   20
ATOM    114  H10 UNL A   1      23.124  41.442  48.148  1.00  0.00    +0.000 H 
ATOM     20  N3  UNL A   1      24.033  41.818  48.155  1.00  0.00    +0.000 N 
BRANCH   20   18
ATOM     18  C11 UNL A   1      24.088  43.179  48.211  1.00  0.00    +0.000 C 
ATOM     19  O5  UNL A   1      23.203  43.764  48.841  1.00  0.00    +0.000 O 
BRANCH   18   17
ATOM     17  C10 UNL A   1      25.207  43.971  47.513  1.00  0.00    +0.000 C 
ATOM    113  H9  UNL A   1      25.075  43.813  46.464  1.00  0.00    +0.000 H 
ATOM    112  H8  UNL A   1      26.145  43.615  47.882  1.00  0.00    +0.000 H 
BRANCH   17   16
ATOM    111  H7  UNL A   1      24.637  45.906  47.037  1.00  0.00    +0.000 H 
ATOM     16  N2  UNL A   1      25.158  45.421  47.718  1.00  0.00    +0.000 N 
BRANCH   16   14
ATOM     14  C9  UNL A   1      25.710  46.232  48.691  1.00  0.00    +0.000 C 
ATOM     15  O4  UNL A   1      25.858  47.424  48.445  1.00  0.00    +0.000 O 
BRANCH   14   12
ATOM     12  C8  UNL A   1      26.133  45.647  50.056  1.00  0.00    +0.000 C 
ATOM     13  O3  UNL A   1      25.347  45.783  50.989  1.00  0.00    +0.000 O 
BRANCH   12   11
ATOM     97  C65 UNL A   1      27.529  43.587  50.736  1.00  0.00    +0.000 C 
ATOM     98  C66 UNL A   1      26.583  42.596  51.084  1.00  0.00    +0.000 C 
ATOM     99  C67 UNL A   1      27.005  41.320  51.455  1.00  0.00    +0.000 C 
ATOM    100  C68 UNL A   1      28.358  41.016  51.503  1.00  0.00    +0.000 C 
ATOM    101  C69 UNL A   1      29.322  41.979  51.194  1.00  0.00    +0.000 C 
ATOM    102  C70 UNL A   1      28.889  43.260  50.804  1.00  0.00    +0.000 C 
ATOM      9  N1  UNL A   1      29.566  44.388  50.392  1.00  0.00    +0.000 N 
ATOM     10  C6  UNL A   1      28.697  45.409  50.081  1.00  0.00    +0.000 C 
ATOM     11  C7  UNL A   1      27.406  44.948  50.277  1.00  0.00    +0.000 C 
ATOM    110  H6  UNL A   1      28.960  46.352  49.758  1.00  0.00    +0.000 H 
ATOM    145  H41 UNL A   1      25.575  42.819  51.063  1.00  0.00    +0.000 H 
ATOM    146  H42 UNL A   1      26.307  40.597  51.694  1.00  0.00    +0.000 H 
ATOM    147  H43 UNL A   1      28.656  40.066  51.773  1.00  0.00    +0.000 H 
ATOM    148  H44 UNL A   1      30.329  41.756  51.250  1.00  0.00    +0.000 H 
BRANCH    9    6
ATOM      6  S1  UNL A   1      31.257  44.479  50.182  1.00  0.00    +0.000 S 
ATOM      7  O1  UNL A   1      31.821  43.927  51.392  1.00  0.00    +0.000 O 
ATOM      8  O2  UNL A   1      31.526  45.846  49.757  1.00  0.00    +0.000 O 
BRANCH    6    5
ATOM      2  C2  UNL A   1      32.480  41.908  46.602  1.00  0.00    +0.000 C 
ATOM      3  C3  UNL A   1      31.790  43.114  46.435  1.00  0.00    +0.000 C 
ATOM      4  C4  UNL A   1      31.407  43.868  47.544  1.00  0.00    +0.000 C 
ATOM      5  C5  UNL A   1      31.702  43.413  48.835  1.00  0.00    +0.000 C 
ATOM    103  C71 UNL A   1      32.353  42.191  49.013  1.00  0.00    +0.000 C 
ATOM    104  C72 UNL A   1      32.751  41.450  47.897  1.00  0.00    +0.000 C 
ATOM    108  H4  UNL A   1      31.563  43.447  45.484  1.00  0.00    +0.000 H 
ATOM    109  H5  UNL A   1      30.907  44.762  47.414  1.00  0.00    +0.000 H 
ATOM    149  H45 UNL A   1      32.541  41.838  49.965  1.00  0.00    +0.000 H 
ATOM    150  H46 UNL A   1      33.249  40.556  48.028  1.00  0.00    +0.000 H 
BRANCH    2    1
ATOM      1  C1  UNL A   1      32.918  41.122  45.401  1.00  0.00    +0.000 C 
ATOM    106  H2  UNL A   1      32.623  41.635  44.510  1.00  0.00    +0.000 H 
ATOM    107  H3  UNL A   1      32.462  40.153  45.422  1.00  0.00    +0.000 H 
ATOM    105  H1  UNL A   1      33.983  41.014  45.413  1.00  0.00    +0.000 H 
ENDBRANCH    2    1
ENDBRANCH    6    5
ENDBRANCH    9    6
ENDBRANCH   12   11
ENDBRANCH   14   12
ENDBRANCH   16   14
ENDBRANCH   17   16
ENDBRANCH   18   17
ENDBRANCH   20   18
ENDBRANCH   21   20
ENDBRANCH   22   21
ENDBRANCH   24   22
ENDBRANCH   25   24
ENDBRANCH   26   25
ENDBRANCH   27   26
ENDBRANCH   28   27
ENDBRANCH   29   28
ENDBRANCH   30   29
ENDBRANCH   31   30
ENDBRANCH   32   31
ENDBRANCH   34   32
ENDBRANCH   38   37
BRANCH   42   43
ATOM     43  C29 UNL A   1      16.915  36.726  48.562  1.00  0.00    +0.000 C 
ATOM     44  C30 UNL A   1      16.866  37.821  49.457  1.00  0.00    +0.000 C 
ATOM     45  F1  UNL A   1      17.981  38.426  49.886  1.00  0.00    +0.000 F 
ATOM     46  C31 UNL A   1      15.668  38.344  49.949  1.00  0.00    +0.000 C 
ATOM     47  F2  UNL A   1      15.696  39.374  50.805  1.00  0.00    +0.000 F 
ATOM     48  C32 UNL A   1      14.461  37.800  49.567  1.00  0.00    +0.000 C 
ATOM     49  F3  UNL A   1      13.312  38.286  50.054  1.00  0.00    +0.000 F 
ATOM     50  C33 UNL A   1      14.455  36.768  48.652  1.00  0.00    +0.000 C 
ATOM     51  F4  UNL A   1      13.288  36.244  48.251  1.00  0.00    +0.000 F 
ATOM     52  C34 UNL A   1      15.655  36.269  48.132  1.00  0.00    +0.000 C 
ATOM     53  F5  UNL A   1      15.531  35.367  47.154  1.00  0.00    +0.000 F 
ENDBRANCH   42   43
BRANCH   59   60
ATOM     65  C43 UNL A   1      17.886  29.960  43.542  1.00  0.00    +0.000 C 
ATOM     66  F8  UNL A   1      17.160  28.898  43.168  1.00  0.00    +0.000 F 
ATOM     67  C44 UNL A   1      18.901  29.818  44.461  1.00  0.00    +0.000 C 
ATOM     68  F9  UNL A   1      19.202  28.608  44.950  1.00  0.00    +0.000 F 
ATOM     69  C45 UNL A   1      19.631  30.932  44.872  1.00  0.00    +0.000 C 
ATOM     70  F10 UNL A   1      20.571  30.688  45.797  1.00  0.00    +0.000 F 
ATOM     60  C40 UNL A   1      19.425  32.227  44.330  1.00  0.00    +0.000 C 
ATOM     61  C41 UNL A   1      18.431  32.304  43.342  1.00  0.00    +0.000 C 
ATOM     62  F6  UNL A   1      18.226  33.423  42.635  1.00  0.00    +0.000 F 
ATOM     63  C42 UNL A   1      17.644  31.203  42.992  1.00  0.00    +0.000 C 
ATOM     64  F7  UNL A   1      16.663  31.353  42.090  1.00  0.00    +0.000 F 
ENDBRANCH   59   60
BRANCH   74   75
ATOM     75  C49 UNL A   1      26.047  34.575  45.945  1.00  0.00    +0.000 C 
ATOM     76  C50 UNL A   1      25.836  33.524  46.864  1.00  0.00    +0.000 C 
ATOM     77  F11 UNL A   1      24.607  33.311  47.364  1.00  0.00    +0.000 F 
ATOM     78  C51 UNL A   1      26.840  32.604  47.153  1.00  0.00    +0.000 C 
ATOM     79  F12 UNL A   1      26.565  31.529  47.906  1.00  0.00    +0.000 F 
ATOM     80  C52 UNL A   1      28.095  32.754  46.588  1.00  0.00    +0.000 C 
ATOM     81  F13 UNL A   1      29.031  31.814  46.775  1.00  0.00    +0.000 F 
ATOM     82  C53 UNL A   1      28.364  33.862  45.797  1.00  0.00    +0.000 C 
ATOM     83  F14 UNL A   1      29.582  34.005  45.252  1.00  0.00    +0.000 F 
ATOM     84  C54 UNL A   1      27.351  34.770  45.478  1.00  0.00    +0.000 C 
ATOM     85  F15 UNL A   1      27.622  35.759  44.614  1.00  0.00    +0.000 F 
ENDBRANCH   74   75
TORSDOF 25
ENDMDL
MODEL 7
REMARK VINA RESULT:      -7.4     42.486     46.232
ROOT
ATOM    133  H29 UNL A   1      18.416  37.672  45.667  1.00  0.00    +0.000 H 
ATOM    134  H30 UNL A   1      19.812  36.300  43.914  1.00  0.00    +0.000 H 
ATOM    135  H31 UNL A   1      18.757  33.765  47.009  1.00  0.00    +0.000 H 
ATOM    136  H32 UNL A   1      22.732  37.282  44.324  1.00  0.00    +0.000 H 
ATOM    137  H33 UNL A   1      21.273  37.567  46.410  1.00  0.00    +0.000 H 
ATOM    138  H34 UNL A   1      25.203  36.927  47.577  1.00  0.00    +0.000 H 
ATOM    139  H35 UNL A   1      24.538  32.966  43.255  1.00  0.00    +0.000 H 
ATOM    140  H36 UNL A   1      22.133  32.110  42.922  1.00  0.00    +0.000 H 
ATOM    141  H37 UNL A   1      18.657  36.555  51.073  1.00  0.00    +0.000 H 
ATOM    142  H38 UNL A   1      21.191  36.911  51.341  1.00  0.00    +0.000 H 
ATOM     38  C25 UNL A   1      22.593  36.507  48.792  1.00  0.00    +0.000 C 
ATOM     39  C26 UNL A   1      21.183  36.329  49.157  1.00  0.00    +0.000 C 
ATOM     40  N6  UNL A   1      20.287  35.852  48.373  1.00  0.00    +0.000 N 
ATOM     41  C27 UNL A   1      19.063  36.080  48.967  1.00  0.00    +0.000 C 
ATOM     42  C28 UNL A   1      17.959  36.103  48.169  1.00  0.00    +0.000 C 
ATOM     54  C35 UNL A   1      18.354  35.827  46.790  1.00  0.00    +0.000 C 
ATOM     55  C36 UNL A   1      18.675  36.676  45.743  1.00  0.00    +0.000 C 
ATOM     56  C37 UNL A   1      19.422  35.934  44.796  1.00  0.00    +0.000 C 
ATOM     57  C38 UNL A   1      19.536  34.632  45.256  1.00  0.00    +0.000 C 
ATOM     58  N7  UNL A   1      18.862  34.577  46.461  1.00  0.00    +0.000 N 
ATOM     59  C39 UNL A   1      20.141  33.443  44.679  1.00  0.00    +0.000 C 
ATOM     71  C46 UNL A   1      21.489  33.533  44.470  1.00  0.00    +0.000 C 
ATOM     72  N8  UNL A   1      22.274  34.420  45.159  1.00  0.00    +0.000 N 
ATOM     73  C47 UNL A   1      23.512  34.299  44.763  1.00  0.00    +0.000 C 
ATOM     74  C48 UNL A   1      24.643  35.148  45.288  1.00  0.00    +0.000 C 
ATOM     86  C55 UNL A   1      24.214  36.372  45.717  1.00  0.00    +0.000 C 
ATOM     87  C56 UNL A   1      22.986  37.020  45.289  1.00  0.00    +0.000 C 
ATOM     88  C57 UNL A   1      22.242  37.213  46.393  1.00  0.00    +0.000 C 
ATOM     89  C58 UNL A   1      23.032  36.839  47.558  1.00  0.00    +0.000 C 
ATOM     90  N9  UNL A   1      24.369  36.757  47.082  1.00  0.00    +0.000 N 
ATOM     91  C59 UNL A   1      23.679  33.276  43.737  1.00  0.00    +0.000 C 
ATOM     92  C60 UNL A   1      22.415  32.846  43.589  1.00  0.00    +0.000 C 
ATOM     93  C61 UNL A   1      19.362  36.448  50.327  1.00  0.00    +0.000 C 
ATOM     94  C62 UNL A   1      20.674  36.631  50.493  1.00  0.00    +0.000 C 
ENDROOT
BRANCH   38   37
ATOM     34  C21 UNL A   1      25.653  36.915  51.523  1.00  0.00    +0.000 C 
ATOM     35  C22 UNL A   1      25.201  35.608  51.283  1.00  0.00    +0.000 C 
ATOM     36  C23 UNL A   1      24.101  35.417  50.463  1.00  0.00    +0.000 C 
ATOM    131  H27 UNL A   1      25.680  34.801  51.712  1.00  0.00    +0.000 H 
ATOM    132  H28 UNL A   1      23.713  34.476  50.295  1.00  0.00    +0.000 H 
ATOM     37  C24 UNL A   1      23.543  36.545  49.877  1.00  0.00    +0.000 C 
ATOM    143  H39 UNL A   1      23.347  38.650  49.935  1.00  0.00    +0.000 H 
ATOM    144  H40 UNL A   1      24.975  38.910  51.726  1.00  0.00    +0.000 H 
ATOM     95  C63 UNL A   1      23.855  37.834  50.313  1.00  0.00    +0.000 C 
ATOM     96  C64 UNL A   1      24.841  38.006  51.246  1.00  0.00    +0.000 C 
BRANCH   34   32
ATOM     33  O7  UNL A   1      27.668  37.108  52.708  1.00  0.00    +0.000 O 
ATOM     32  C20 UNL A   1      27.123  37.075  51.610  1.00  0.00    +0.000 C 
BRANCH   32   31
ATOM    130  H26 UNL A   1      28.021  36.058  50.124  1.00  0.00    +0.000 H 
ATOM     31  N5  UNL A   1      27.885  36.973  50.461  1.00  0.00    +0.000 N 
BRANCH   31   30
ATOM    129  H25 UNL A   1      29.535  37.737  49.520  1.00  0.00    +0.000 H 
ATOM     30  C19 UNL A   1      28.516  38.025  49.678  1.00  0.00    +0.000 C 
ATOM    128  H24 UNL A   1      28.439  38.945  50.218  1.00  0.00    +0.000 H 
BRANCH   30   29
ATOM     29  C18 UNL A   1      27.884  38.214  48.311  1.00  0.00    +0.000 C 
ATOM    126  H22 UNL A   1      28.609  38.667  47.667  1.00  0.00    +0.000 H 
ATOM    127  H23 UNL A   1      27.580  37.243  47.979  1.00  0.00    +0.000 H 
BRANCH   29   28
ATOM    124  H20 UNL A   1      25.801  38.470  48.580  1.00  0.00    +0.000 H 
ATOM     28  C17 UNL A   1      26.631  39.089  48.311  1.00  0.00    +0.000 C 
ATOM    125  H21 UNL A   1      26.833  39.878  49.003  1.00  0.00    +0.000 H 
BRANCH   28   27
ATOM    122  H18 UNL A   1      25.310  39.467  46.692  1.00  0.00    +0.000 H 
ATOM     27  C16 UNL A   1      26.291  39.780  46.983  1.00  0.00    +0.000 C 
ATOM    123  H19 UNL A   1      26.373  40.830  47.172  1.00  0.00    +0.000 H 
BRANCH   27   26
ATOM    121  H17 UNL A   1      26.776  38.728  45.229  1.00  0.00    +0.000 H 
ATOM     26  C15 UNL A   1      27.240  39.491  45.820  1.00  0.00    +0.000 C 
ATOM    120  H16 UNL A   1      28.183  39.190  46.224  1.00  0.00    +0.000 H 
BRANCH   26   25
ATOM     25  C14 UNL A   1      27.475  40.675  44.893  1.00  0.00    +0.000 C 
ATOM    118  H14 UNL A   1      27.574  40.310  43.892  1.00  0.00    +0.000 H 
ATOM    119  H15 UNL A   1      26.638  41.333  45.000  1.00  0.00    +0.000 H 
BRANCH   25   24
ATOM    117  H13 UNL A   1      29.431  41.305  44.627  1.00  0.00    +0.000 H 
ATOM     24  N4  UNL A   1      28.659  41.432  45.224  1.00  0.00    +0.000 N 
BRANCH   24   22
ATOM     22  C13 UNL A   1      28.842  42.300  46.263  1.00  0.00    +0.000 C 
ATOM     23  O6  UNL A   1      29.702  42.016  47.101  1.00  0.00    +0.000 O 
BRANCH   22   21
ATOM    115  H11 UNL A   1      28.502  44.403  46.268  1.00  0.00    +0.000 H 
ATOM    116  H12 UNL A   1      27.102  43.389  45.798  1.00  0.00    +0.000 H 
ATOM     21  C12 UNL A   1      27.926  43.523  46.467  1.00  0.00    +0.000 C 
BRANCH   21   20
ATOM    114  H10 UNL A   1      27.742  43.061  48.475  1.00  0.00    +0.000 H 
ATOM     20  N3  UNL A   1      27.349  43.654  47.796  1.00  0.00    +0.000 N 
BRANCH   20   18
ATOM     18  C11 UNL A   1      26.351  44.463  48.253  1.00  0.00    +0.000 C 
ATOM     19  O5  UNL A   1      25.577  44.944  47.422  1.00  0.00    +0.000 O 
BRANCH   18   17
ATOM     17  C10 UNL A   1      26.190  44.779  49.750  1.00  0.00    +0.000 C 
ATOM    113  H9  UNL A   1      25.792  45.769  49.806  1.00  0.00    +0.000 H 
ATOM    112  H8  UNL A   1      27.149  44.679  50.215  1.00  0.00    +0.000 H 
BRANCH   17   16
ATOM    111  H7  UNL A   1      24.625  43.426  49.879  1.00  0.00    +0.000 H 
ATOM     16  N2  UNL A   1      25.246  43.916  50.465  1.00  0.00    +0.000 N 
BRANCH   16   14
ATOM     14  C9  UNL A   1      25.068  43.666  51.812  1.00  0.00    +0.000 C 
ATOM     15  O4  UNL A   1      26.060  43.505  52.514  1.00  0.00    +0.000 O 
BRANCH   14   12
ATOM     12  C8  UNL A   1      23.650  43.589  52.418  1.00  0.00    +0.000 C 
ATOM     13  O3  UNL A   1      23.178  44.628  52.869  1.00  0.00    +0.000 O 
BRANCH   12   11
ATOM     97  C65 UNL A   1      22.135  41.788  51.359  1.00  0.00    +0.000 C 
ATOM     98  C66 UNL A   1      21.965  42.190  50.015  1.00  0.00    +0.000 C 
ATOM     99  C67 UNL A   1      21.231  41.399  49.132  1.00  0.00    +0.000 C 
ATOM    100  C68 UNL A   1      20.647  40.219  49.569  1.00  0.00    +0.000 C 
ATOM    101  C69 UNL A   1      20.770  39.805  50.898  1.00  0.00    +0.000 C 
ATOM    102  C70 UNL A   1      21.526  40.599  51.780  1.00  0.00    +0.000 C 
ATOM      9  N1  UNL A   1      21.878  40.446  53.104  1.00  0.00    +0.000 N 
ATOM     10  C6  UNL A   1      22.667  41.488  53.536  1.00  0.00    +0.000 C 
ATOM     11  C7  UNL A   1      22.860  42.351  52.472  1.00  0.00    +0.000 C 
ATOM    110  H6  UNL A   1      23.049  41.605  54.487  1.00  0.00    +0.000 H 
ATOM    145  H41 UNL A   1      22.386  43.074  49.687  1.00  0.00    +0.000 H 
ATOM    146  H42 UNL A   1      21.123  41.693  48.148  1.00  0.00    +0.000 H 
ATOM    147  H43 UNL A   1      20.112  39.640  48.904  1.00  0.00    +0.000 H 
ATOM    148  H44 UNL A   1      20.317  38.936  51.225  1.00  0.00    +0.000 H 
BRANCH    9    6
ATOM      6  S1  UNL A   1      21.485  39.088  54.059  1.00  0.00    +0.000 S 
ATOM      7  O1  UNL A   1      21.905  39.430  55.398  1.00  0.00    +0.000 O 
ATOM      8  O2  UNL A   1      22.028  37.939  53.347  1.00  0.00    +0.000 O 
BRANCH    6    5
ATOM      2  C2  UNL A   1      16.918  38.834  53.976  1.00  0.00    +0.000 C 
ATOM      3  C3  UNL A   1      17.579  40.012  54.342  1.00  0.00    +0.000 C 
ATOM      4  C4  UNL A   1      18.973  40.057  54.382  1.00  0.00    +0.000 C 
ATOM      5  C5  UNL A   1      19.719  38.914  54.068  1.00  0.00    +0.000 C 
ATOM    103  C71 UNL A   1      19.068  37.723  53.742  1.00  0.00    +0.000 C 
ATOM    104  C72 UNL A   1      17.672  37.691  53.685  1.00  0.00    +0.000 C 
ATOM    108  H4  UNL A   1      17.031  40.853  54.584  1.00  0.00    +0.000 H 
ATOM    109  H5  UNL A   1      19.454  40.932  54.644  1.00  0.00    +0.000 H 
ATOM    149  H45 UNL A   1      19.616  36.871  53.543  1.00  0.00    +0.000 H 
ATOM    150  H46 UNL A   1      17.192  36.815  53.427  1.00  0.00    +0.000 H 
BRANCH    2    1
ATOM      1  C1  UNL A   1      15.419  38.806  53.903  1.00  0.00    +0.000 C 
ATOM    106  H2  UNL A   1      15.109  38.942  52.888  1.00  0.00    +0.000 H 
ATOM    107  H3  UNL A   1      15.017  39.594  54.506  1.00  0.00    +0.000 H 
ATOM    105  H1  UNL A   1      15.062  37.863  54.262  1.00  0.00    +0.000 H 
ENDBRANCH    2    1
ENDBRANCH    6    5
ENDBRANCH    9    6
ENDBRANCH   12   11
ENDBRANCH   14   12
ENDBRANCH   16   14
ENDBRANCH   17   16
ENDBRANCH   18   17
ENDBRANCH   20   18
ENDBRANCH   21   20
ENDBRANCH   22   21
ENDBRANCH   24   22
ENDBRANCH   25   24
ENDBRANCH   26   25
ENDBRANCH   27   26
ENDBRANCH   28   27
ENDBRANCH   29   28
ENDBRANCH   30   29
ENDBRANCH   31   30
ENDBRANCH   32   31
ENDBRANCH   34   32
ENDBRANCH   38   37
BRANCH   42   43
ATOM     43  C29 UNL A   1      16.613  36.686  48.538  1.00  0.00    +0.000 C 
ATOM     44  C30 UNL A   1      16.534  37.734  49.485  1.00  0.00    +0.000 C 
ATOM     45  F1  UNL A   1      17.634  38.315  49.982  1.00  0.00    +0.000 F 
ATOM     46  C31 UNL A   1      15.320  38.234  49.962  1.00  0.00    +0.000 C 
ATOM     47  F2  UNL A   1      15.320  39.220  50.869  1.00  0.00    +0.000 F 
ATOM     48  C32 UNL A   1      14.126  37.713  49.512  1.00  0.00    +0.000 C 
ATOM     49  F3  UNL A   1      12.962  38.177  49.985  1.00  0.00    +0.000 F 
ATOM     50  C33 UNL A   1      14.151  36.729  48.547  1.00  0.00    +0.000 C 
ATOM     51  F4  UNL A   1      12.998  36.228  48.080  1.00  0.00    +0.000 F 
ATOM     52  C34 UNL A   1      15.368  36.254  48.043  1.00  0.00    +0.000 C 
ATOM     53  F5  UNL A   1      15.277  35.403  47.017  1.00  0.00    +0.000 F 
ENDBRANCH   42   43
BRANCH   59   60
ATOM     65  C43 UNL A   1      17.737  30.039  43.392  1.00  0.00    +0.000 C 
ATOM     66  F8  UNL A   1      17.027  28.981  42.980  1.00  0.00    +0.000 F 
ATOM     67  C44 UNL A   1      18.735  29.883  44.328  1.00  0.00    +0.000 C 
ATOM     68  F9  UNL A   1      19.036  28.663  44.794  1.00  0.00    +0.000 F 
ATOM     69  C45 UNL A   1      19.449  30.992  44.778  1.00  0.00    +0.000 C 
ATOM     70  F10 UNL A   1      20.373  30.733  45.715  1.00  0.00    +0.000 F 
ATOM     60  C40 UNL A   1      19.243  32.298  44.263  1.00  0.00    +0.000 C 
ATOM     61  C41 UNL A   1      18.268  32.391  43.258  1.00  0.00    +0.000 C 
ATOM     62  F6  UNL A   1      18.068  33.525  42.573  1.00  0.00    +0.000 F 
ATOM     63  C42 UNL A   1      17.496  31.293  42.868  1.00  0.00    +0.000 C 
ATOM     64  F7  UNL A   1      16.531  31.457  41.950  1.00  0.00    +0.000 F 
ENDBRANCH   59   60
BRANCH   74   75
ATOM     75  C49 UNL A   1      25.812  34.653  46.070  1.00  0.00    +0.000 C 
ATOM     76  C50 UNL A   1      25.633  33.478  46.831  1.00  0.00    +0.000 C 
ATOM     77  F11 UNL A   1      24.397  33.112  47.212  1.00  0.00    +0.000 F 
ATOM     78  C51 UNL A   1      26.689  32.604  47.073  1.00  0.00    +0.000 C 
ATOM     79  F12 UNL A   1      26.458  31.422  47.662  1.00  0.00    +0.000 F 
ATOM     80  C52 UNL A   1      27.960  32.917  46.621  1.00  0.00    +0.000 C 
ATOM     81  F13 UNL A   1      28.956  32.032  46.753  1.00  0.00    +0.000 F 
ATOM     82  C53 UNL A   1      28.185  34.136  45.996  1.00  0.00    +0.000 C 
ATOM     83  F14 UNL A   1      29.418  34.439  45.561  1.00  0.00    +0.000 F 
ATOM     84  C54 UNL A   1      27.123  35.002  45.723  1.00  0.00    +0.000 C 
ATOM     85  F15 UNL A   1      27.364  36.113  45.013  1.00  0.00    +0.000 F 
ENDBRANCH   74   75
TORSDOF 25
ENDMDL
MODEL 8
REMARK VINA RESULT:      -7.4     43.492     51.488
ROOT
ATOM    133  H29 UNL A   1      18.399  37.917  45.892  1.00  0.00    +0.000 H 
ATOM    134  H30 UNL A   1      19.918  36.624  44.181  1.00  0.00    +0.000 H 
ATOM    135  H31 UNL A   1      18.928  34.039  47.257  1.00  0.00    +0.000 H 
ATOM    136  H32 UNL A   1      22.764  37.772  44.664  1.00  0.00    +0.000 H 
ATOM    137  H33 UNL A   1      21.236  37.978  46.711  1.00  0.00    +0.000 H 
ATOM    138  H34 UNL A   1      25.164  37.568  47.984  1.00  0.00    +0.000 H 
ATOM    139  H35 UNL A   1      24.843  33.565  43.661  1.00  0.00    +0.000 H 
ATOM    140  H36 UNL A   1      22.501  32.571  43.268  1.00  0.00    +0.000 H 
ATOM    141  H37 UNL A   1      18.559  36.828  51.306  1.00  0.00    +0.000 H 
ATOM    142  H38 UNL A   1      21.061  37.330  51.640  1.00  0.00    +0.000 H 
ATOM     38  C25 UNL A   1      22.551  37.001  49.131  1.00  0.00    +0.000 C 
ATOM     39  C26 UNL A   1      21.144  36.744  49.459  1.00  0.00    +0.000 C 
ATOM     40  N6  UNL A   1      20.298  36.214  48.653  1.00  0.00    +0.000 N 
ATOM     41  C27 UNL A   1      19.048  36.373  49.214  1.00  0.00    +0.000 C 
ATOM     42  C28 UNL A   1      17.966  36.330  48.387  1.00  0.00    +0.000 C 
ATOM     54  C35 UNL A   1      18.413  36.074  47.019  1.00  0.00    +0.000 C 
ATOM     55  C36 UNL A   1      18.712  36.937  45.978  1.00  0.00    +0.000 C 
ATOM     56  C37 UNL A   1      19.525  36.237  45.054  1.00  0.00    +0.000 C 
ATOM     57  C38 UNL A   1      19.702  34.946  45.522  1.00  0.00    +0.000 C 
ATOM     58  N7  UNL A   1      19.001  34.854  46.709  1.00  0.00    +0.000 N 
ATOM     59  C39 UNL A   1      20.389  33.792  44.966  1.00  0.00    +0.000 C 
ATOM     71  C46 UNL A   1      21.735  33.959  44.792  1.00  0.00    +0.000 C 
ATOM     72  N8  UNL A   1      22.450  34.891  45.499  1.00  0.00    +0.000 N 
ATOM     73  C47 UNL A   1      23.702  34.840  45.136  1.00  0.00    +0.000 C 
ATOM     74  C48 UNL A   1      24.768  35.754  45.687  1.00  0.00    +0.000 C 
ATOM     86  C55 UNL A   1      24.258  36.953  46.100  1.00  0.00    +0.000 C 
ATOM     87  C56 UNL A   1      23.006  37.528  45.638  1.00  0.00    +0.000 C 
ATOM     88  C57 UNL A   1      22.224  37.680  46.720  1.00  0.00    +0.000 C 
ATOM     89  C58 UNL A   1      23.002  37.355  47.908  1.00  0.00    +0.000 C 
ATOM     90  N9  UNL A   1      24.354  37.349  47.468  1.00  0.00    +0.000 N 
ATOM     91  C59 UNL A   1      23.955  33.827  44.119  1.00  0.00    +0.000 C 
ATOM     92  C60 UNL A   1      22.722  33.324  43.938  1.00  0.00    +0.000 C 
ATOM     93  C61 UNL A   1      19.289  36.760  50.580  1.00  0.00    +0.000 C 
ATOM     94  C62 UNL A   1      20.583  37.019  50.780  1.00  0.00    +0.000 C 
ENDROOT
BRANCH   38   37
ATOM     34  C21 UNL A   1      25.581  37.391  51.897  1.00  0.00    +0.000 C 
ATOM     35  C22 UNL A   1      24.847  36.196  51.940  1.00  0.00    +0.000 C 
ATOM     36  C23 UNL A   1      23.745  36.054  51.113  1.00  0.00    +0.000 C 
ATOM    131  H27 UNL A   1      25.123  35.435  52.580  1.00  0.00    +0.000 H 
ATOM    132  H28 UNL A   1      23.156  35.208  51.144  1.00  0.00    +0.000 H 
ATOM     37  C24 UNL A   1      23.468  37.096  50.240  1.00  0.00    +0.000 C 
ATOM    143  H39 UNL A   1      23.756  39.142  49.788  1.00  0.00    +0.000 H 
ATOM    144  H40 UNL A   1      25.373  39.473  51.576  1.00  0.00    +0.000 H 
ATOM     95  C63 UNL A   1      24.058  38.354  50.381  1.00  0.00    +0.000 C 
ATOM     96  C64 UNL A   1      25.043  38.530  51.315  1.00  0.00    +0.000 C 
BRANCH   34   32
ATOM     33  O7  UNL A   1      27.779  38.205  51.838  1.00  0.00    +0.000 O 
ATOM     32  C20 UNL A   1      27.047  37.245  52.047  1.00  0.00    +0.000 C 
BRANCH   32   31
ATOM    130  H26 UNL A   1      27.647  35.324  52.018  1.00  0.00    +0.000 H 
ATOM     31  N5  UNL A   1      27.559  36.096  52.623  1.00  0.00    +0.000 N 
BRANCH   31   30
ATOM    129  H25 UNL A   1      27.598  36.667  54.588  1.00  0.00    +0.000 H 
ATOM     30  C19 UNL A   1      27.985  35.864  53.995  1.00  0.00    +0.000 C 
ATOM    128  H24 UNL A   1      29.054  35.828  54.017  1.00  0.00    +0.000 H 
BRANCH   30   29
ATOM     29  C18 UNL A   1      27.446  34.571  54.578  1.00  0.00    +0.000 C 
ATOM    126  H22 UNL A   1      28.232  34.100  55.130  1.00  0.00    +0.000 H 
ATOM    127  H23 UNL A   1      26.609  34.837  55.188  1.00  0.00    +0.000 H 
BRANCH   29   28
ATOM    124  H20 UNL A   1      27.041  34.027  52.573  1.00  0.00    +0.000 H 
ATOM     28  C17 UNL A   1      26.930  33.577  53.537  1.00  0.00    +0.000 C 
ATOM    125  H21 UNL A   1      27.509  32.690  53.677  1.00  0.00    +0.000 H 
BRANCH   28   27
ATOM    122  H18 UNL A   1      25.022  33.740  54.456  1.00  0.00    +0.000 H 
ATOM     27  C16 UNL A   1      25.465  33.143  53.687  1.00  0.00    +0.000 C 
ATOM    123  H19 UNL A   1      25.021  33.279  52.723  1.00  0.00    +0.000 H 
BRANCH   27   26
ATOM    121  H17 UNL A   1      25.915  31.105  53.441  1.00  0.00    +0.000 H 
ATOM     26  C15 UNL A   1      25.239  31.674  54.045  1.00  0.00    +0.000 C 
ATOM    120  H16 UNL A   1      24.213  31.437  53.859  1.00  0.00    +0.000 H 
BRANCH   26   25
ATOM     25  C14 UNL A   1      25.554  31.326  55.493  1.00  0.00    +0.000 C 
ATOM    118  H14 UNL A   1      26.562  31.618  55.702  1.00  0.00    +0.000 H 
ATOM    119  H15 UNL A   1      24.849  31.847  56.105  1.00  0.00    +0.000 H 
BRANCH   25   24
ATOM    117  H13 UNL A   1      24.753  29.685  56.473  1.00  0.00    +0.000 H 
ATOM     24  N4  UNL A   1      25.415  29.919  55.784  1.00  0.00    +0.000 N 
BRANCH   24   22
ATOM     22  C13 UNL A   1      26.089  28.871  55.223  1.00  0.00    +0.000 C 
ATOM     23  O6  UNL A   1      27.315  28.840  55.360  1.00  0.00    +0.000 O 
BRANCH   22   21
ATOM    115  H11 UNL A   1      24.344  28.107  54.269  1.00  0.00    +0.000 H 
ATOM    116  H12 UNL A   1      25.885  27.849  53.394  1.00  0.00    +0.000 H 
ATOM     21  C12 UNL A   1      25.376  27.832  54.335  1.00  0.00    +0.000 C 
BRANCH   21   20
ATOM    114  H10 UNL A   1      26.356  26.086  54.854  1.00  0.00    +0.000 H 
ATOM     20  N3  UNL A   1      25.447  26.457  54.806  1.00  0.00    +0.000 N 
BRANCH   20   18
ATOM     18  C11 UNL A   1      24.458  25.600  55.189  1.00  0.00    +0.000 C 
ATOM     19  O5  UNL A   1      24.544  24.425  54.821  1.00  0.00    +0.000 O 
BRANCH   18   17
ATOM     17  C10 UNL A   1      23.268  26.069  56.043  1.00  0.00    +0.000 C 
ATOM    113  H9  UNL A   1      22.615  25.228  56.134  1.00  0.00    +0.000 H 
ATOM    112  H8  UNL A   1      22.818  26.907  55.552  1.00  0.00    +0.000 H 
BRANCH   17   16
ATOM    111  H7  UNL A   1      24.448  26.984  57.480  1.00  0.00    +0.000 H 
ATOM     16  N2  UNL A   1      23.609  26.474  57.409  1.00  0.00    +0.000 N 
BRANCH   16   14
ATOM     14  C9  UNL A   1      22.969  26.268  58.616  1.00  0.00    +0.000 C 
ATOM     15  O4  UNL A   1      22.026  26.995  58.910  1.00  0.00    +0.000 O 
BRANCH   14   12
ATOM     12  C8  UNL A   1      23.434  25.150  59.573  1.00  0.00    +0.000 C 
ATOM     13  O3  UNL A   1      22.940  25.135  60.696  1.00  0.00    +0.000 O 
BRANCH   12   11
ATOM     97  C65 UNL A   1      25.605  23.810  59.956  1.00  0.00    +0.000 C 
ATOM     98  C66 UNL A   1      26.149  24.322  61.157  1.00  0.00    +0.000 C 
ATOM     99  C67 UNL A   1      27.315  23.774  61.690  1.00  0.00    +0.000 C 
ATOM    100  C68 UNL A   1      27.962  22.735  61.037  1.00  0.00    +0.000 C 
ATOM    101  C69 UNL A   1      27.470  22.224  59.834  1.00  0.00    +0.000 C 
ATOM    102  C70 UNL A   1      26.283  22.769  59.310  1.00  0.00    +0.000 C 
ATOM      9  N1  UNL A   1      25.524  22.460  58.201  1.00  0.00    +0.000 N 
ATOM     10  C6  UNL A   1      24.411  23.265  58.116  1.00  0.00    +0.000 C 
ATOM     11  C7  UNL A   1      24.418  24.124  59.201  1.00  0.00    +0.000 C 
ATOM    110  H6  UNL A   1      23.696  23.233  57.373  1.00  0.00    +0.000 H 
ATOM    145  H41 UNL A   1      25.680  25.104  61.640  1.00  0.00    +0.000 H 
ATOM    146  H42 UNL A   1      27.699  24.144  62.574  1.00  0.00    +0.000 H 
ATOM    147  H43 UNL A   1      28.821  22.335  61.446  1.00  0.00    +0.000 H 
ATOM    148  H44 UNL A   1      27.964  21.463  59.340  1.00  0.00    +0.000 H 
BRANCH    9    6
ATOM      6  S1  UNL A   1      25.854  21.172  57.132  1.00  0.00    +0.000 S 
ATOM      7  O1  UNL A   1      24.862  21.281  56.087  1.00  0.00    +0.000 O 
ATOM      8  O2  UNL A   1      25.966  19.986  57.970  1.00  0.00    +0.000 O 
BRANCH    6    5
ATOM      2  C2  UNL A   1      29.979  21.683  55.224  1.00  0.00    +0.000 C 
ATOM      3  C3  UNL A   1      29.733  20.689  56.178  1.00  0.00    +0.000 C 
ATOM      4  C4  UNL A   1      28.471  20.569  56.762  1.00  0.00    +0.000 C 
ATOM      5  C5  UNL A   1      27.447  21.455  56.405  1.00  0.00    +0.000 C 
ATOM    103  C71 UNL A   1      27.696  22.475  55.486  1.00  0.00    +0.000 C 
ATOM    104  C72 UNL A   1      28.956  22.578  54.890  1.00  0.00    +0.000 C 
ATOM    108  H4  UNL A   1      30.489  20.041  56.450  1.00  0.00    +0.000 H 
ATOM    109  H5  UNL A   1      28.293  19.828  57.458  1.00  0.00    +0.000 H 
ATOM    149  H45 UNL A   1      26.951  23.150  55.247  1.00  0.00    +0.000 H 
ATOM    150  H46 UNL A   1      29.134  23.321  54.197  1.00  0.00    +0.000 H 
BRANCH    2    1
ATOM      1  C1  UNL A   1      31.330  21.782  54.576  1.00  0.00    +0.000 C 
ATOM    106  H2  UNL A   1      31.449  22.753  54.144  1.00  0.00    +0.000 H 
ATOM    107  H3  UNL A   1      31.413  21.039  53.810  1.00  0.00    +0.000 H 
ATOM    105  H1  UNL A   1      32.091  21.623  55.311  1.00  0.00    +0.000 H 
ENDBRANCH    2    1
ENDBRANCH    6    5
ENDBRANCH    9    6
ENDBRANCH   12   11
ENDBRANCH   14   12
ENDBRANCH   16   14
ENDBRANCH   17   16
ENDBRANCH   18   17
ENDBRANCH   20   18
ENDBRANCH   21   20
ENDBRANCH   22   21
ENDBRANCH   24   22
ENDBRANCH   25   24
ENDBRANCH   26   25
ENDBRANCH   27   26
ENDBRANCH   28   27
ENDBRANCH   29   28
ENDBRANCH   30   29
ENDBRANCH   31   30
ENDBRANCH   32   31
ENDBRANCH   34   32
ENDBRANCH   38   37
BRANCH   42   43
ATOM     43  C29 UNL A   1      16.579  36.836  48.718  1.00  0.00    +0.000 C 
ATOM     44  C30 UNL A   1      16.416  37.889  49.648  1.00  0.00    +0.000 C 
ATOM     45  F1  UNL A   1      17.467  38.541  50.161  1.00  0.00    +0.000 F 
ATOM     46  C31 UNL A   1      15.163  38.321  50.091  1.00  0.00    +0.000 C 
ATOM     47  F2  UNL A   1      15.083  39.316  50.984  1.00  0.00    +0.000 F 
ATOM     48  C32 UNL A   1      14.014  37.723  49.622  1.00  0.00    +0.000 C 
ATOM     49  F3  UNL A   1      12.813  38.122  50.062  1.00  0.00    +0.000 F 
ATOM     50  C33 UNL A   1      14.119  36.730  48.671  1.00  0.00    +0.000 C 
ATOM     51  F4  UNL A   1      13.010  36.154  48.186  1.00  0.00    +0.000 F 
ATOM     52  C34 UNL A   1      15.374  36.323  48.201  1.00  0.00    +0.000 C 
ATOM     53  F5  UNL A   1      15.357  35.455  47.185  1.00  0.00    +0.000 F 
ENDBRANCH   42   43
BRANCH   59   60
ATOM     65  C43 UNL A   1      18.221  30.250  43.633  1.00  0.00    +0.000 C 
ATOM     66  F8  UNL A   1      17.584  29.151  43.208  1.00  0.00    +0.000 F 
ATOM     67  C44 UNL A   1      19.186  30.159  44.611  1.00  0.00    +0.000 C 
ATOM     68  F9  UNL A   1      19.530  28.963  45.107  1.00  0.00    +0.000 F 
ATOM     69  C45 UNL A   1      19.821  31.309  45.073  1.00  0.00    +0.000 C 
ATOM     70  F10 UNL A   1      20.718  31.111  46.051  1.00  0.00    +0.000 F 
ATOM     60  C40 UNL A   1      19.571  32.596  44.530  1.00  0.00    +0.000 C 
ATOM     61  C41 UNL A   1      18.634  32.625  43.485  1.00  0.00    +0.000 C 
ATOM     62  F6  UNL A   1      18.404  33.738  42.776  1.00  0.00    +0.000 F 
ATOM     63  C42 UNL A   1      17.937  31.483  43.080  1.00  0.00    +0.000 C 
ATOM     64  F7  UNL A   1      17.005  31.584  42.122  1.00  0.00    +0.000 F 
ENDBRANCH   59   60
BRANCH   74   75
ATOM     75  C49 UNL A   1      25.943  35.330  46.502  1.00  0.00    +0.000 C 
ATOM     76  C50 UNL A   1      27.188  35.921  46.199  1.00  0.00    +0.000 C 
ATOM     77  F11 UNL A   1      27.401  36.444  44.980  1.00  0.00    +0.000 F 
ATOM     78  C51 UNL A   1      28.156  36.111  47.182  1.00  0.00    +0.000 C 
ATOM     79  F12 UNL A   1      29.263  36.814  46.903  1.00  0.00    +0.000 F 
ATOM     80  C52 UNL A   1      27.931  35.653  48.469  1.00  0.00    +0.000 C 
ATOM     81  F13 UNL A   1      28.808  35.929  49.443  1.00  0.00    +0.000 F 
ATOM     82  C53 UNL A   1      26.773  34.941  48.751  1.00  0.00    +0.000 C 
ATOM     83  F14 UNL A   1      26.558  34.496  49.999  1.00  0.00    +0.000 F 
ATOM     84  C54 UNL A   1      25.785  34.775  47.777  1.00  0.00    +0.000 C 
ATOM     85  F15 UNL A   1      24.632  34.186  48.124  1.00  0.00    +0.000 F 
ENDBRANCH   74   75
TORSDOF 25
ENDMDL
MODEL 9
REMARK VINA RESULT:      -7.4     42.546     46.155
ROOT
ATOM    133  H29 UNL A   1      18.603  37.717  45.715  1.00  0.00    +0.000 H 
ATOM    134  H30 UNL A   1      19.963  36.330  43.945  1.00  0.00    +0.000 H 
ATOM    135  H31 UNL A   1      18.910  33.805  47.049  1.00  0.00    +0.000 H 
ATOM    136  H32 UNL A   1      22.899  37.275  44.324  1.00  0.00    +0.000 H 
ATOM    137  H33 UNL A   1      21.466  37.576  46.427  1.00  0.00    +0.000 H 
ATOM    138  H34 UNL A   1      25.400  36.886  47.551  1.00  0.00    +0.000 H 
ATOM    139  H35 UNL A   1      24.640  32.939  43.231  1.00  0.00    +0.000 H 
ATOM    140  H36 UNL A   1      22.221  32.113  42.924  1.00  0.00    +0.000 H 
ATOM    141  H37 UNL A   1      18.888  36.590  51.116  1.00  0.00    +0.000 H 
ATOM    142  H38 UNL A   1      21.429  36.914  51.358  1.00  0.00    +0.000 H 
ATOM     38  C25 UNL A   1      22.798  36.496  48.793  1.00  0.00    +0.000 C 
ATOM     39  C26 UNL A   1      21.390  36.336  49.173  1.00  0.00    +0.000 C 
ATOM     40  N6  UNL A   1      20.480  35.871  48.398  1.00  0.00    +0.000 N 
ATOM     41  C27 UNL A   1      19.266  36.113  49.006  1.00  0.00    +0.000 C 
ATOM     42  C28 UNL A   1      18.153  36.151  48.220  1.00  0.00    +0.000 C 
ATOM     54  C35 UNL A   1      18.530  35.871  46.836  1.00  0.00    +0.000 C 
ATOM     55  C36 UNL A   1      18.851  36.717  45.787  1.00  0.00    +0.000 C 
ATOM     56  C37 UNL A   1      19.578  35.968  44.830  1.00  0.00    +0.000 C 
ATOM     57  C38 UNL A   1      19.681  34.664  45.288  1.00  0.00    +0.000 C 
ATOM     58  N7  UNL A   1      19.020  34.615  46.500  1.00  0.00    +0.000 N 
ATOM     59  C39 UNL A   1      20.265  33.468  44.703  1.00  0.00    +0.000 C 
ATOM     71  C46 UNL A   1      21.611  33.542  44.479  1.00  0.00    +0.000 C 
ATOM     72  N8  UNL A   1      22.415  34.419  45.162  1.00  0.00    +0.000 N 
ATOM     73  C47 UNL A   1      23.647  34.282  44.752  1.00  0.00    +0.000 C 
ATOM     74  C48 UNL A   1      24.794  35.117  45.265  1.00  0.00    +0.000 C 
ATOM     86  C55 UNL A   1      24.385  36.345  45.701  1.00  0.00    +0.000 C 
ATOM     87  C56 UNL A   1      23.160  37.009  45.287  1.00  0.00    +0.000 C 
ATOM     88  C57 UNL A   1      22.431  37.210  46.398  1.00  0.00    +0.000 C 
ATOM     89  C58 UNL A   1      23.228  36.825  47.555  1.00  0.00    +0.000 C 
ATOM     90  N9  UNL A   1      24.559  36.727  47.065  1.00  0.00    +0.000 N 
ATOM     91  C59 UNL A   1      23.791  33.259  43.723  1.00  0.00    +0.000 C 
ATOM     92  C60 UNL A   1      22.519  32.844  43.588  1.00  0.00    +0.000 C 
ATOM     93  C61 UNL A   1      19.584  36.475  50.363  1.00  0.00    +0.000 C 
ATOM     94  C62 UNL A   1      20.900  36.642  50.515  1.00  0.00    +0.000 C 
ENDROOT
BRANCH   38   37
ATOM     34  C21 UNL A   1      25.912  36.815  51.475  1.00  0.00    +0.000 C 
ATOM     35  C22 UNL A   1      25.352  35.538  51.318  1.00  0.00    +0.000 C 
ATOM     36  C23 UNL A   1      24.231  35.389  50.518  1.00  0.00    +0.000 C 
ATOM    131  H27 UNL A   1      25.769  34.722  51.792  1.00  0.00    +0.000 H 
ATOM    132  H28 UNL A   1      23.766  34.475  50.410  1.00  0.00    +0.000 H 
ATOM     37  C24 UNL A   1      23.761  36.521  49.867  1.00  0.00    +0.000 C 
ATOM    143  H39 UNL A   1      23.737  38.635  49.799  1.00  0.00    +0.000 H 
ATOM    144  H40 UNL A   1      25.401  38.867  51.560  1.00  0.00    +0.000 H 
ATOM     95  C63 UNL A   1      24.181  37.804  50.223  1.00  0.00    +0.000 C 
ATOM     96  C64 UNL A   1      25.188  37.950  51.137  1.00  0.00    +0.000 C 
BRANCH   34   32
ATOM     33  O7  UNL A   1      27.963  36.533  52.577  1.00  0.00    +0.000 O 
ATOM     32  C20 UNL A   1      27.391  36.859  51.543  1.00  0.00    +0.000 C 
BRANCH   32   31
ATOM    130  H26 UNL A   1      28.151  36.293  49.767  1.00  0.00    +0.000 H 
ATOM     31  N5  UNL A   1      28.117  37.061  50.383  1.00  0.00    +0.000 N 
BRANCH   31   30
ATOM    129  H25 UNL A   1      29.762  37.915  49.515  1.00  0.00    +0.000 H 
ATOM     30  C19 UNL A   1      28.839  38.246  49.943  1.00  0.00    +0.000 C 
ATOM    128  H24 UNL A   1      28.994  38.883  50.788  1.00  0.00    +0.000 H 
BRANCH   30   29
ATOM     29  C18 UNL A   1      28.102  39.031  48.874  1.00  0.00    +0.000 C 
ATOM    126  H22 UNL A   1      27.051  38.889  49.019  1.00  0.00    +0.000 H 
ATOM    127  H23 UNL A   1      28.404  40.052  48.982  1.00  0.00    +0.000 H 
BRANCH   29   28
ATOM    124  H20 UNL A   1      29.190  39.301  47.079  1.00  0.00    +0.000 H 
ATOM     28  C17 UNL A   1      28.447  38.623  47.442  1.00  0.00    +0.000 C 
ATOM    125  H21 UNL A   1      28.773  37.607  47.504  1.00  0.00    +0.000 H 
BRANCH   28   27
ATOM    122  H18 UNL A   1      27.504  37.906  45.679  1.00  0.00    +0.000 H 
ATOM     27  C16 UNL A   1      27.283  38.623  46.441  1.00  0.00    +0.000 C 
ATOM    123  H19 UNL A   1      26.408  38.393  47.013  1.00  0.00    +0.000 H 
BRANCH   27   26
ATOM    121  H17 UNL A   1      26.876  39.749  44.714  1.00  0.00    +0.000 H 
ATOM     26  C15 UNL A   1      26.993  39.959  45.757  1.00  0.00    +0.000 C 
ATOM    120  H16 UNL A   1      27.806  40.623  45.960  1.00  0.00    +0.000 H 
BRANCH   26   25
ATOM     25  C14 UNL A   1      25.705  40.630  46.212  1.00  0.00    +0.000 C 
ATOM    118  H14 UNL A   1      25.242  41.090  45.363  1.00  0.00    +0.000 H 
ATOM    119  H15 UNL A   1      25.088  39.872  46.646  1.00  0.00    +0.000 H 
BRANCH   25   24
ATOM    117  H13 UNL A   1      26.798  41.638  47.656  1.00  0.00    +0.000 H 
ATOM     24  N4  UNL A   1      25.915  41.640  47.222  1.00  0.00    +0.000 N 
BRANCH   24   22
ATOM     22  C13 UNL A   1      25.040  42.598  47.652  1.00  0.00    +0.000 C 
ATOM     23  O6  UNL A   1      25.343  43.778  47.457  1.00  0.00    +0.000 O 
BRANCH   22   21
ATOM    115  H11 UNL A   1      22.927  42.418  47.856  1.00  0.00    +0.000 H 
ATOM    116  H12 UNL A   1      23.901  41.214  48.756  1.00  0.00    +0.000 H 
ATOM     21  C12 UNL A   1      23.785  42.239  48.470  1.00  0.00    +0.000 C 
BRANCH   21   20
ATOM    114  H10 UNL A   1      22.939  43.698  49.668  1.00  0.00    +0.000 H 
ATOM     20  N3  UNL A   1      23.614  42.984  49.708  1.00  0.00    +0.000 N 
BRANCH   20   18
ATOM     18  C11 UNL A   1      24.237  42.855  50.914  1.00  0.00    +0.000 C 
ATOM     19  O5  UNL A   1      23.807  42.000  51.693  1.00  0.00    +0.000 O 
BRANCH   18   17
ATOM     17  C10 UNL A   1      25.431  43.742  51.305  1.00  0.00    +0.000 C 
ATOM    113  H9  UNL A   1      25.029  44.713  51.504  1.00  0.00    +0.000 H 
ATOM    112  H8  UNL A   1      26.131  43.731  50.496  1.00  0.00    +0.000 H 
BRANCH   17   16
ATOM    111  H7  UNL A   1      25.740  43.680  53.353  1.00  0.00    +0.000 H 
ATOM     16  N2  UNL A   1      26.136  43.331  52.521  1.00  0.00    +0.000 N 
BRANCH   16   14
ATOM     14  C9  UNL A   1      27.254  42.543  52.715  1.00  0.00    +0.000 C 
ATOM     15  O4  UNL A   1      27.108  41.432  53.213  1.00  0.00    +0.000 O 
BRANCH   14   12
ATOM     12  C8  UNL A   1      28.655  43.054  52.316  1.00  0.00    +0.000 C 
ATOM     13  O3  UNL A   1      29.247  43.754  53.131  1.00  0.00    +0.000 O 
BRANCH   12   11
ATOM     97  C65 UNL A   1      30.311  41.735  50.841  1.00  0.00    +0.000 C 
ATOM     98  C66 UNL A   1      30.952  40.832  51.719  1.00  0.00    +0.000 C 
ATOM     99  C67 UNL A   1      31.885  39.918  51.231  1.00  0.00    +0.000 C 
ATOM    100  C68 UNL A   1      32.205  39.899  49.881  1.00  0.00    +0.000 C 
ATOM    101  C69 UNL A   1      31.613  40.796  48.988  1.00  0.00    +0.000 C 
ATOM    102  C70 UNL A   1      30.660  41.704  49.485  1.00  0.00    +0.000 C 
ATOM      9  N1  UNL A   1      29.872  42.657  48.874  1.00  0.00    +0.000 N 
ATOM     10  C6  UNL A   1      29.057  43.291  49.783  1.00  0.00    +0.000 C 
ATOM     11  C7  UNL A   1      29.293  42.739  51.031  1.00  0.00    +0.000 C 
ATOM    110  H6  UNL A   1      28.385  44.045  49.572  1.00  0.00    +0.000 H 
ATOM    145  H41 UNL A   1      30.728  40.851  52.727  1.00  0.00    +0.000 H 
ATOM    146  H42 UNL A   1      32.338  39.253  51.877  1.00  0.00    +0.000 H 
ATOM    147  H43 UNL A   1      32.893  39.213  49.532  1.00  0.00    +0.000 H 
ATOM    148  H44 UNL A   1      31.868  40.792  47.988  1.00  0.00    +0.000 H 
BRANCH    9    6
ATOM      6  S1  UNL A   1      29.827  42.940  47.192  1.00  0.00    +0.000 S 
ATOM      7  O1  UNL A   1      28.886  44.022  47.014  1.00  0.00    +0.000 O 
ATOM      8  O2  UNL A   1      29.627  41.633  46.580  1.00  0.00    +0.000 O 
BRANCH    6    5
ATOM      2  C2  UNL A   1      33.920  44.330  45.697  1.00  0.00    +0.000 C 
ATOM      3  C3  UNL A   1      33.486  43.012  45.520  1.00  0.00    +0.000 C 
ATOM      4  C4  UNL A   1      32.242  42.606  46.006  1.00  0.00    +0.000 C 
ATOM      5  C5  UNL A   1      31.427  43.518  46.688  1.00  0.00    +0.000 C 
ATOM    103  C71 UNL A   1      31.869  44.824  46.906  1.00  0.00    +0.000 C 
ATOM    104  C72 UNL A   1      33.108  45.228  46.400  1.00  0.00    +0.000 C 
ATOM    108  H4  UNL A   1      34.089  42.335  45.025  1.00  0.00    +0.000 H 
ATOM    109  H5  UNL A   1      31.923  41.635  45.863  1.00  0.00    +0.000 H 
ATOM    149  H45 UNL A   1      31.284  45.487  47.438  1.00  0.00    +0.000 H 
ATOM    150  H46 UNL A   1      33.427  46.198  46.545  1.00  0.00    +0.000 H 
BRANCH    2    1
ATOM      1  C1  UNL A   1      35.244  44.764  45.140  1.00  0.00    +0.000 C 
ATOM    106  H2  UNL A   1      36.012  44.588  45.863  1.00  0.00    +0.000 H 
ATOM    107  H3  UNL A   1      35.208  45.808  44.905  1.00  0.00    +0.000 H 
ATOM    105  H1  UNL A   1      35.457  44.207  44.251  1.00  0.00    +0.000 H 
ENDBRANCH    2    1
ENDBRANCH    6    5
ENDBRANCH    9    6
ENDBRANCH   12   11
ENDBRANCH   14   12
ENDBRANCH   16   14
ENDBRANCH   17   16
ENDBRANCH   18   17
ENDBRANCH   20   18
ENDBRANCH   21   20
ENDBRANCH   22   21
ENDBRANCH   24   22
ENDBRANCH   25   24
ENDBRANCH   26   25
ENDBRANCH   27   26
ENDBRANCH   28   27
ENDBRANCH   29   28
ENDBRANCH   30   29
ENDBRANCH   31   30
ENDBRANCH   32   31
ENDBRANCH   34   32
ENDBRANCH   38   37
BRANCH   42   43
ATOM     43  C29 UNL A   1      16.818  36.750  48.604  1.00  0.00    +0.000 C 
ATOM     44  C30 UNL A   1      16.768  37.838  49.506  1.00  0.00    +0.000 C 
ATOM     45  F1  UNL A   1      17.881  38.439  49.944  1.00  0.00    +0.000 F 
ATOM     46  C31 UNL A   1      15.569  38.359  49.998  1.00  0.00    +0.000 C 
ATOM     47  F2  UNL A   1      15.595  39.383  50.861  1.00  0.00    +0.000 F 
ATOM     48  C32 UNL A   1      14.362  37.820  49.608  1.00  0.00    +0.000 C 
ATOM     49  F3  UNL A   1      13.212  38.303  50.095  1.00  0.00    +0.000 F 
ATOM     50  C33 UNL A   1      14.358  36.794  48.686  1.00  0.00    +0.000 C 
ATOM     51  F4  UNL A   1      13.192  36.273  48.277  1.00  0.00    +0.000 F 
ATOM     52  C34 UNL A   1      15.559  36.297  48.166  1.00  0.00    +0.000 C 
ATOM     53  F5  UNL A   1      15.438  35.402  47.181  1.00  0.00    +0.000 F 
ENDBRANCH   42   43
BRANCH   59   60
ATOM     65  C43 UNL A   1      17.806  30.093  43.444  1.00  0.00    +0.000 C 
ATOM     66  F8  UNL A   1      17.079  29.043  43.041  1.00  0.00    +0.000 F 
ATOM     67  C44 UNL A   1      18.792  29.932  44.391  1.00  0.00    +0.000 C 
ATOM     68  F9  UNL A   1      19.065  28.713  44.877  1.00  0.00    +0.000 F 
ATOM     69  C45 UNL A   1      19.523  31.033  44.832  1.00  0.00    +0.000 C 
ATOM     70  F10 UNL A   1      20.434  30.770  45.781  1.00  0.00    +0.000 F 
ATOM     60  C40 UNL A   1      19.349  32.335  44.295  1.00  0.00    +0.000 C 
ATOM     61  C41 UNL A   1      18.384  32.432  43.280  1.00  0.00    +0.000 C 
ATOM     62  F6  UNL A   1      18.213  33.559  42.577  1.00  0.00    +0.000 F 
ATOM     63  C42 UNL A   1      17.595  31.343  42.898  1.00  0.00    +0.000 C 
ATOM     64  F7  UNL A   1      16.642  31.513  41.970  1.00  0.00    +0.000 F 
ENDBRANCH   59   60
BRANCH   74   75
ATOM     75  C49 UNL A   1      25.965  34.607  46.034  1.00  0.00    +0.000 C 
ATOM     76  C50 UNL A   1      25.742  33.525  46.913  1.00  0.00    +0.000 C 
ATOM     77  F11 UNL A   1      24.507  33.294  47.387  1.00  0.00    +0.000 F 
ATOM     78  C51 UNL A   1      26.744  32.597  47.187  1.00  0.00    +0.000 C 
ATOM     79  F12 UNL A   1      26.459  31.497  47.898  1.00  0.00    +0.000 F 
ATOM     80  C52 UNL A   1      28.007  32.767  46.646  1.00  0.00    +0.000 C 
ATOM     81  F13 UNL A   1      28.942  31.822  46.815  1.00  0.00    +0.000 F 
ATOM     82  C53 UNL A   1      28.286  33.901  45.896  1.00  0.00    +0.000 C 
ATOM     83  F14 UNL A   1      29.511  34.064  45.375  1.00  0.00    +0.000 F 
ATOM     84  C54 UNL A   1      27.276  34.819  45.593  1.00  0.00    +0.000 C 
ATOM     85  F15 UNL A   1      27.559  35.837  44.767  1.00  0.00    +0.000 F 
ENDBRANCH   74   75
TORSDOF 25
ENDMDL
MODEL 10
REMARK VINA RESULT:      -7.4     26.884     30.221
ROOT
ATOM    133  H29 UNL A   1      19.163  15.366   7.057  1.00  0.00    +0.000 H 
ATOM    134  H30 UNL A   1      21.758  14.972   7.168  1.00  0.00    +0.000 H 
ATOM    135  H31 UNL A   1      20.928  18.662   8.847  1.00  0.00    +0.000 H 
ATOM    136  H32 UNL A   1      22.717  15.356   4.237  1.00  0.00    +0.000 H 
ATOM    137  H33 UNL A   1      20.538  16.602   4.754  1.00  0.00    +0.000 H 
ATOM    138  H34 UNL A   1      22.643  18.691   1.852  1.00  0.00    +0.000 H 
ATOM    139  H35 UNL A   1      26.912  17.211   5.647  1.00  0.00    +0.000 H 
ATOM    140  H36 UNL A   1      26.148  16.924   8.089  1.00  0.00    +0.000 H 
ATOM    141  H37 UNL A   1      17.026  20.419   6.399  1.00  0.00    +0.000 H 
ATOM    142  H38 UNL A   1      18.196  20.952   4.170  1.00  0.00    +0.000 H 
ATOM     38  C25 UNL A   1      20.660  19.383   3.866  1.00  0.00    +0.000 C 
ATOM     39  C26 UNL A   1      19.718  19.493   4.985  1.00  0.00    +0.000 C 
ATOM     40  N6  UNL A   1      19.884  18.937   6.128  1.00  0.00    +0.000 N 
ATOM     41  C27 UNL A   1      18.692  19.049   6.813  1.00  0.00    +0.000 C 
ATOM     42  C28 UNL A   1      18.448  18.165   7.821  1.00  0.00    +0.000 C 
ATOM     54  C35 UNL A   1      19.596  17.275   7.972  1.00  0.00    +0.000 C 
ATOM     55  C36 UNL A   1      19.861  16.025   7.437  1.00  0.00    +0.000 C 
ATOM     56  C37 UNL A   1      21.259  15.810   7.503  1.00  0.00    +0.000 C 
ATOM     57  C38 UNL A   1      21.841  16.920   8.096  1.00  0.00    +0.000 C 
ATOM     58  N7  UNL A   1      20.813  17.794   8.396  1.00  0.00    +0.000 N 
ATOM     59  C39 UNL A   1      23.215  17.223   8.461  1.00  0.00    +0.000 C 
ATOM     71  C46 UNL A   1      24.086  17.274   7.409  1.00  0.00    +0.000 C 
ATOM     72  N8  UNL A   1      23.664  17.508   6.126  1.00  0.00    +0.000 N 
ATOM     73  C47 UNL A   1      24.695  17.501   5.325  1.00  0.00    +0.000 C 
ATOM     74  C48 UNL A   1      24.592  17.690   3.832  1.00  0.00    +0.000 C 
ATOM     86  C55 UNL A   1      23.384  17.284   3.341  1.00  0.00    +0.000 C 
ATOM     87  C56 UNL A   1      22.497  16.335   3.994  1.00  0.00    +0.000 C 
ATOM     88  C57 UNL A   1      21.339  16.977   4.220  1.00  0.00    +0.000 C 
ATOM     89  C58 UNL A   1      21.399  18.287   3.588  1.00  0.00    +0.000 C 
ATOM     90  N9  UNL A   1      22.510  18.214   2.703  1.00  0.00    +0.000 N 
ATOM     91  C59 UNL A   1      25.952  17.260   6.023  1.00  0.00    +0.000 C 
ATOM     92  C60 UNL A   1      25.524  17.120   7.290  1.00  0.00    +0.000 C 
ATOM     93  C61 UNL A   1      17.918  20.013   6.075  1.00  0.00    +0.000 C 
ATOM     94  C62 UNL A   1      18.510  20.312   4.916  1.00  0.00    +0.000 C 
ENDROOT
BRANCH   38   37
ATOM     34  C21 UNL A   1      20.348  22.729   1.480  1.00  0.00    +0.000 C 
ATOM     35  C22 UNL A   1      19.687  21.577   1.027  1.00  0.00    +0.000 C 
ATOM     36  C23 UNL A   1      19.849  20.392   1.726  1.00  0.00    +0.000 C 
ATOM    131  H27 UNL A   1      19.090  21.612   0.187  1.00  0.00    +0.000 H 
ATOM    132  H28 UNL A   1      19.413  19.515   1.403  1.00  0.00    +0.000 H 
ATOM     37  C24 UNL A   1      20.620  20.435   2.879  1.00  0.00    +0.000 C 
ATOM    143  H39 UNL A   1      22.095  21.480   3.977  1.00  0.00    +0.000 H 
ATOM    144  H40 UNL A   1      22.117  23.374   2.448  1.00  0.00    +0.000 H 
ATOM     95  C63 UNL A   1      21.450  21.519   3.171  1.00  0.00    +0.000 C 
ATOM     96  C64 UNL A   1      21.400  22.634   2.380  1.00  0.00    +0.000 C 
BRANCH   34   32
ATOM     33  O7  UNL A   1      20.096  24.946   0.755  1.00  0.00    +0.000 O 
ATOM     32  C20 UNL A   1      19.591  23.995   1.341  1.00  0.00    +0.000 C 
BRANCH   32   31
ATOM    130  H26 UNL A   1      17.654  24.436   1.018  1.00  0.00    +0.000 H 
ATOM     31  N5  UNL A   1      18.251  24.025   1.684  1.00  0.00    +0.000 N 
BRANCH   31   30
ATOM    129  H25 UNL A   1      17.088  24.364   3.334  1.00  0.00    +0.000 H 
ATOM     30  C19 UNL A   1      17.598  23.535   2.888  1.00  0.00    +0.000 C 
ATOM    128  H24 UNL A   1      18.343  23.126   3.538  1.00  0.00    +0.000 H 
BRANCH   30   29
ATOM     29  C18 UNL A   1      16.560  22.463   2.611  1.00  0.00    +0.000 C 
ATOM    126  H22 UNL A   1      16.247  22.557   1.592  1.00  0.00    +0.000 H 
ATOM    127  H23 UNL A   1      17.027  21.524   2.820  1.00  0.00    +0.000 H 
BRANCH   29   28
ATOM    124  H20 UNL A   1      15.288  21.653   4.096  1.00  0.00    +0.000 H 
ATOM     28  C17 UNL A   1      15.320  22.542   3.502  1.00  0.00    +0.000 C 
ATOM    125  H21 UNL A   1      15.428  23.444   4.066  1.00  0.00    +0.000 H 
BRANCH   28   27
ATOM    122  H18 UNL A   1      13.433  21.758   2.922  1.00  0.00    +0.000 H 
ATOM     27  C16 UNL A   1      13.973  22.669   2.774  1.00  0.00    +0.000 C 
ATOM    123  H19 UNL A   1      13.496  23.530   3.194  1.00  0.00    +0.000 H 
BRANCH   27   26
ATOM    121  H17 UNL A   1      15.091  23.017   1.029  1.00  0.00    +0.000 H 
ATOM     26  C15 UNL A   1      14.052  22.929   1.270  1.00  0.00    +0.000 C 
ATOM    120  H16 UNL A   1      13.498  23.818   1.054  1.00  0.00    +0.000 H 
BRANCH   26   25
ATOM     25  C14 UNL A   1      13.500  21.803   0.408  1.00  0.00    +0.000 C 
ATOM    118  H14 UNL A   1      12.620  21.415   0.879  1.00  0.00    +0.000 H 
ATOM    119  H15 UNL A   1      13.292  22.214  -0.557  1.00  0.00    +0.000 H 
BRANCH   25   24
ATOM    117  H13 UNL A   1      15.125  20.621   0.914  1.00  0.00    +0.000 H 
ATOM     24  N4  UNL A   1      14.435  20.719   0.220  1.00  0.00    +0.000 N 
BRANCH   24   22
ATOM     22  C13 UNL A   1      14.481  19.813  -0.802  1.00  0.00    +0.000 C 
ATOM     23  O6  UNL A   1      14.047  18.680  -0.581  1.00  0.00    +0.000 O 
BRANCH   22   21
ATOM    115  H11 UNL A   1      15.829  19.331  -2.380  1.00  0.00    +0.000 H 
ATOM    116  H12 UNL A   1      14.382  20.274  -2.854  1.00  0.00    +0.000 H 
ATOM     21  C12 UNL A   1      15.169  20.139  -2.142  1.00  0.00    +0.000 C 
BRANCH   21   20
ATOM    114  H10 UNL A   1      16.707  21.386  -1.541  1.00  0.00    +0.000 H 
ATOM     20  N3  UNL A   1      15.943  21.371  -2.161  1.00  0.00    +0.000 N 
BRANCH   20   18
ATOM     18  C11 UNL A   1      15.782  22.508  -2.897  1.00  0.00    +0.000 C 
ATOM     19  O5  UNL A   1      16.795  23.043  -3.356  1.00  0.00    +0.000 O 
BRANCH   18   17
ATOM     17  C10 UNL A   1      14.392  23.118  -3.146  1.00  0.00    +0.000 C 
ATOM    113  H9  UNL A   1      14.028  23.432  -2.191  1.00  0.00    +0.000 H 
ATOM    112  H8  UNL A   1      13.781  22.372  -3.609  1.00  0.00    +0.000 H 
BRANCH   17   16
ATOM    111  H7  UNL A   1      14.694  24.144  -4.921  1.00  0.00    +0.000 H 
ATOM     16  N2  UNL A   1      14.383  24.307  -4.001  1.00  0.00    +0.000 N 
BRANCH   16   14
ATOM     14  C9  UNL A   1      14.018  25.616  -3.752  1.00  0.00    +0.000 C 
ATOM     15  O4  UNL A   1      13.053  26.079  -4.350  1.00  0.00    +0.000 O 
BRANCH   14   12
ATOM     12  C8  UNL A   1      14.812  26.477  -2.746  1.00  0.00    +0.000 C 
ATOM     13  O3  UNL A   1      16.015  26.257  -2.650  1.00  0.00    +0.000 O 
BRANCH   12   11
ATOM     97  C65 UNL A   1      13.334  27.284  -0.791  1.00  0.00    +0.000 C 
ATOM     98  C66 UNL A   1      12.850  26.104  -0.181  1.00  0.00    +0.000 C 
ATOM     99  C67 UNL A   1      12.050  26.179   0.959  1.00  0.00    +0.000 C 
ATOM    100  C68 UNL A   1      11.707  27.412   1.494  1.00  0.00    +0.000 C 
ATOM    101  C69 UNL A   1      12.144  28.600   0.901  1.00  0.00    +0.000 C 
ATOM    102  C70 UNL A   1      12.965  28.517  -0.239  1.00  0.00    +0.000 C 
ATOM      9  N1  UNL A   1      13.593  29.474  -1.008  1.00  0.00    +0.000 N 
ATOM     10  C6  UNL A   1      14.327  28.900  -2.021  1.00  0.00    +0.000 C 
ATOM     11  C7  UNL A   1      14.199  27.525  -1.919  1.00  0.00    +0.000 C 
ATOM    110  H6  UNL A   1      14.878  29.405  -2.732  1.00  0.00    +0.000 H 
ATOM    145  H41 UNL A   1      13.090  25.183  -0.582  1.00  0.00    +0.000 H 
ATOM    146  H42 UNL A   1      11.711  25.312   1.406  1.00  0.00    +0.000 H 
ATOM    147  H43 UNL A   1      11.120  27.453   2.341  1.00  0.00    +0.000 H 
ATOM    148  H44 UNL A   1      11.871  29.517   1.290  1.00  0.00    +0.000 H 
BRANCH    9    6
ATOM      6  S1  UNL A   1      13.562  31.148  -0.684  1.00  0.00    +0.000 S 
ATOM      7  O1  UNL A   1      14.170  31.771  -1.837  1.00  0.00    +0.000 O 
ATOM      8  O2  UNL A   1      14.114  31.298   0.656  1.00  0.00    +0.000 O 
BRANCH    6    5
ATOM      2  C2  UNL A   1       9.254  32.659  -0.396  1.00  0.00    +0.000 C 
ATOM      3  C3  UNL A   1      10.113  32.684   0.708  1.00  0.00    +0.000 C 
ATOM      4  C4  UNL A   1      11.416  32.196   0.601  1.00  0.00    +0.000 C 
ATOM      5  C5  UNL A   1      11.866  31.664  -0.614  1.00  0.00    +0.000 C 
ATOM    103  C71 UNL A   1      11.003  31.597  -1.709  1.00  0.00    +0.000 C 
ATOM    104  C72 UNL A   1       9.706  32.105  -1.600  1.00  0.00    +0.000 C 
ATOM    108  H4  UNL A   1       9.781  33.067   1.608  1.00  0.00    +0.000 H 
ATOM    109  H5  UNL A   1      12.048  32.226   1.417  1.00  0.00    +0.000 H 
ATOM    149  H45 UNL A   1      11.323  31.174  -2.596  1.00  0.00    +0.000 H 
ATOM    150  H46 UNL A   1       9.074  32.072  -2.416  1.00  0.00    +0.000 H 
BRANCH    2    1
ATOM      1  C1  UNL A   1       7.867  33.219  -0.280  1.00  0.00    +0.000 C 
ATOM    106  H2  UNL A   1       7.199  32.653  -0.895  1.00  0.00    +0.000 H 
ATOM    107  H3  UNL A   1       7.866  34.241  -0.600  1.00  0.00    +0.000 H 
ATOM    105  H1  UNL A   1       7.544  33.165   0.740  1.00  0.00    +0.000 H 
ENDBRANCH    2    1
ENDBRANCH    6    5
ENDBRANCH    9    6
ENDBRANCH   12   11
ENDBRANCH   14   12
ENDBRANCH   16   14
ENDBRANCH   17   16
ENDBRANCH   18   17
ENDBRANCH   20   18
ENDBRANCH   21   20
ENDBRANCH   22   21
ENDBRANCH   24   22
ENDBRANCH   25   24
ENDBRANCH   26   25
ENDBRANCH   27   26
ENDBRANCH   28   27
ENDBRANCH   29   28
ENDBRANCH   30   29
ENDBRANCH   31   30
ENDBRANCH   32   31
ENDBRANCH   34   32
ENDBRANCH   38   37
BRANCH   42   43
ATOM     43  C29 UNL A   1      17.096  17.876   8.436  1.00  0.00    +0.000 C 
ATOM     44  C30 UNL A   1      16.721  18.508   9.644  1.00  0.00    +0.000 C 
ATOM     45  F1  UNL A   1      17.482  19.457  10.205  1.00  0.00    +0.000 F 
ATOM     46  C31 UNL A   1      15.544  18.196  10.329  1.00  0.00    +0.000 C 
ATOM     47  F2  UNL A   1      15.258  18.826  11.476  1.00  0.00    +0.000 F 
ATOM     48  C32 UNL A   1      14.684  17.239   9.836  1.00  0.00    +0.000 C 
ATOM     49  F3  UNL A   1      13.567  16.922  10.503  1.00  0.00    +0.000 F 
ATOM     50  C33 UNL A   1      14.979  16.634   8.632  1.00  0.00    +0.000 C 
ATOM     51  F4  UNL A   1      14.141  15.718   8.127  1.00  0.00    +0.000 F 
ATOM     52  C34 UNL A   1      16.141  16.975   7.929  1.00  0.00    +0.000 C 
ATOM     53  F5  UNL A   1      16.260  16.434   6.713  1.00  0.00    +0.000 F 
ENDBRANCH   42   43
BRANCH   59   60
ATOM     65  C43 UNL A   1      24.026  17.494  12.738  1.00  0.00    +0.000 C 
ATOM     66  F8  UNL A   1      24.241  17.576  14.057  1.00  0.00    +0.000 F 
ATOM     67  C44 UNL A   1      23.563  16.323  12.182  1.00  0.00    +0.000 C 
ATOM     68  F9  UNL A   1      23.275  15.274  12.964  1.00  0.00    +0.000 F 
ATOM     69  C45 UNL A   1      23.373  16.232  10.804  1.00  0.00    +0.000 C 
ATOM     70  F10 UNL A   1      22.954  15.036  10.365  1.00  0.00    +0.000 F 
ATOM     60  C40 UNL A   1      23.572  17.330   9.928  1.00  0.00    +0.000 C 
ATOM     61  C41 UNL A   1      23.972  18.522  10.553  1.00  0.00    +0.000 C 
ATOM     62  F6  UNL A   1      24.054  19.676   9.880  1.00  0.00    +0.000 F 
ATOM     63  C42 UNL A   1      24.242  18.587  11.923  1.00  0.00    +0.000 C 
ATOM     64  F7  UNL A   1      24.686  19.736  12.453  1.00  0.00    +0.000 F 
ENDBRANCH   59   60
BRANCH   74   75
ATOM     75  C49 UNL A   1      25.161  18.832   3.059  1.00  0.00    +0.000 C 
ATOM     76  C50 UNL A   1      25.067  20.116   3.636  1.00  0.00    +0.000 C 
ATOM     77  F11 UNL A   1      24.123  20.366   4.559  1.00  0.00    +0.000 F 
ATOM     78  C51 UNL A   1      26.024  21.095   3.383  1.00  0.00    +0.000 C 
ATOM     79  F12 UNL A   1      25.996  22.250   4.064  1.00  0.00    +0.000 F 
ATOM     80  C52 UNL A   1      27.056  20.837   2.496  1.00  0.00    +0.000 C 
ATOM     81  F13 UNL A   1      28.040  21.732   2.332  1.00  0.00    +0.000 F 
ATOM     82  C53 UNL A   1      27.084  19.631   1.809  1.00  0.00    +0.000 C 
ATOM     83  F14 UNL A   1      28.084  19.384   0.948  1.00  0.00    +0.000 F 
ATOM     84  C54 UNL A   1      26.144  18.634   2.082  1.00  0.00    +0.000 C 
ATOM     85  F15 UNL A   1      26.278  17.442   1.485  1.00  0.00    +0.000 F 
ENDBRANCH   74   75
TORSDOF 25
ENDMDL
