MODEL 1
REMARK VINA RESULT:     -11.4      0.000      0.000
ROOT
ATOM     19  C15 UNL A   1      52.746  20.437  11.458  1.00  0.00    +0.000 C 
ATOM     20  C16 UNL A   1      54.044  19.738  11.167  1.00  0.00    +0.000 C 
ATOM     21  N3  UNL A   1      55.081  19.560  11.948  1.00  0.00    +0.000 N 
ATOM     22  C17 UNL A   1      55.996  18.831  11.202  1.00  0.00    +0.000 C 
ATOM     23  C18 UNL A   1      57.250  18.446  11.544  1.00  0.00    +0.000 C 
ATOM     35  C25 UNL A   1      57.877  18.738  12.806  1.00  0.00    +0.000 C 
ATOM     36  C26 UNL A   1      59.159  18.430  13.227  1.00  0.00    +0.000 C 
ATOM     37  C27 UNL A   1      59.312  18.887  14.540  1.00  0.00    +0.000 C 
ATOM     38  C28 UNL A   1      58.138  19.514  14.924  1.00  0.00    +0.000 C 
ATOM     39  N4  UNL A   1      57.264  19.410  13.854  1.00  0.00    +0.000 N 
ATOM     40  C29 UNL A   1      57.835  20.160  16.173  1.00  0.00    +0.000 C 
ATOM     52  C36 UNL A   1      56.656  20.761  16.470  1.00  0.00    +0.000 C 
ATOM     53  N5  UNL A   1      55.520  20.888  15.685  1.00  0.00    +0.000 N 
ATOM     54  C37 UNL A   1      54.643  21.524  16.422  1.00  0.00    +0.000 C 
ATOM     55  C38 UNL A   1      53.245  21.957  16.074  1.00  0.00    +0.000 C 
ATOM     67  C45 UNL A   1      52.765  21.706  14.841  1.00  0.00    +0.000 C 
ATOM     68  C46 UNL A   1      51.441  22.081  14.355  1.00  0.00    +0.000 C 
ATOM     69  C47 UNL A   1      51.297  21.647  13.093  1.00  0.00    +0.000 C 
ATOM     70  C48 UNL A   1      52.533  20.986  12.671  1.00  0.00    +0.000 C 
ATOM     71  N6  UNL A   1      53.347  21.067  13.773  1.00  0.00    +0.000 N 
ATOM     72  C49 UNL A   1      55.120  21.852  17.772  1.00  0.00    +0.000 C 
ATOM     73  C50 UNL A   1      56.365  21.403  17.735  1.00  0.00    +0.000 C 
ATOM     74  C51 UNL A   1      55.377  18.556   9.923  1.00  0.00    +0.000 C 
ATOM     75  C52 UNL A   1      54.191  19.141   9.831  1.00  0.00    +0.000 C 
ATOM    112  H21 UNL A   1      59.878  17.946  12.667  1.00  0.00    +0.000 H 
ATOM    113  H22 UNL A   1      60.156  18.775  15.124  1.00  0.00    +0.000 H 
ATOM    114  H23 UNL A   1      56.345  19.761  13.840  1.00  0.00    +0.000 H 
ATOM    115  H24 UNL A   1      50.730  22.599  14.895  1.00  0.00    +0.000 H 
ATOM    116  H25 UNL A   1      50.451  21.761  12.514  1.00  0.00    +0.000 H 
ATOM    117  H26 UNL A   1      54.262  20.704  13.796  1.00  0.00    +0.000 H 
ATOM    118  H27 UNL A   1      54.616  22.311  18.548  1.00  0.00    +0.000 H 
ATOM    119  H28 UNL A   1      57.043  21.498  18.508  1.00  0.00    +0.000 H 
ATOM    120  H29 UNL A   1      55.802  17.979   9.181  1.00  0.00    +0.000 H 
ATOM    121  H30 UNL A   1      53.541  19.173   9.030  1.00  0.00    +0.000 H 
ENDROOT
BRANCH   19   18
ATOM     76  C53 UNL A   1      51.470  21.648   9.679  1.00  0.00    +0.000 C 
ATOM     77  C54 UNL A   1      50.474  21.693   8.704  1.00  0.00    +0.000 C 
ATOM    110  H19 UNL A   1      49.310  18.561   9.005  1.00  0.00    +0.000 H 
ATOM     15  C11 UNL A   1      49.727  20.547   8.415  1.00  0.00    +0.000 C 
ATOM     16  C12 UNL A   1      49.893  19.394   9.187  1.00  0.00    +0.000 C 
ATOM     17  C13 UNL A   1      50.849  19.368  10.204  1.00  0.00    +0.000 C 
ATOM    111  H20 UNL A   1      50.954  18.524  10.789  1.00  0.00    +0.000 H 
ATOM     18  C14 UNL A   1      51.669  20.485  10.437  1.00  0.00    +0.000 C 
ATOM    122  H31 UNL A   1      52.064  22.476   9.843  1.00  0.00    +0.000 H 
ATOM    123  H32 UNL A   1      50.289  22.572   8.195  1.00  0.00    +0.000 H 
BRANCH   15   13
ATOM     13  C10 UNL A   1      48.735  20.527   7.316  1.00  0.00    +0.000 C 
ATOM     14  O2  UNL A   1      48.506  21.557   6.688  1.00  0.00    +0.000 O 
BRANCH   13   12
ATOM     12  N2  UNL A   1      48.056  19.374   7.014  1.00  0.00    +0.000 N 
ATOM    109  H18 UNL A   1      47.571  18.962   7.766  1.00  0.00    +0.000 H 
BRANCH   12   11
ATOM     11  C9  UNL A   1      47.949  18.670   5.747  1.00  0.00    +0.000 C 
ATOM    108  H17 UNL A   1      48.301  17.672   5.898  1.00  0.00    +0.000 H 
ATOM    107  H16 UNL A   1      48.535  19.189   5.016  1.00  0.00    +0.000 H 
BRANCH   11   10
ATOM    105  H14 UNL A   1      45.931  18.074   5.988  1.00  0.00    +0.000 H 
ATOM     10  C8  UNL A   1      46.509  18.583   5.246  1.00  0.00    +0.000 C 
ATOM    106  H15 UNL A   1      46.193  19.592   5.076  1.00  0.00    +0.000 H 
BRANCH   10    9
ATOM      9  C7  UNL A   1      46.323  17.851   3.916  1.00  0.00    +0.000 C 
ATOM    103  H12 UNL A   1      47.289  17.565   3.558  1.00  0.00    +0.000 H 
ATOM    104  H13 UNL A   1      45.679  17.021   4.122  1.00  0.00    +0.000 H 
BRANCH    9    8
ATOM    101  H10 UNL A   1      46.357  19.317   2.385  1.00  0.00    +0.000 H 
ATOM    102  H11 UNL A   1      45.238  17.941   2.127  1.00  0.00    +0.000 H 
ATOM      8  C6  UNL A   1      45.632  18.659   2.816  1.00  0.00    +0.000 C 
BRANCH    8    7
ATOM     99  H8  UNL A   1      43.549  19.079   2.847  1.00  0.00    +0.000 H 
ATOM    100  H9  UNL A   1      44.449  19.492   4.338  1.00  0.00    +0.000 H 
ATOM      7  C5  UNL A   1      44.435  19.506   3.269  1.00  0.00    +0.000 C 
BRANCH    7    6
ATOM     97  H6  UNL A   1      44.297  21.589   3.721  1.00  0.00    +0.000 H 
ATOM     98  H7  UNL A   1      45.463  21.184   2.463  1.00  0.00    +0.000 H 
ATOM      6  C4  UNL A   1      44.490  20.984   2.860  1.00  0.00    +0.000 C 
BRANCH    6    5
ATOM      5  N1  UNL A   1      43.508  21.293   1.838  1.00  0.00    +0.000 N 
ATOM     96  H5  UNL A   1      43.436  22.231   1.546  1.00  0.00    +0.000 H 
BRANCH    5    3
ATOM      3  C3  UNL A   1      42.675  20.377   1.249  1.00  0.00    +0.000 C 
ATOM      4  O1  UNL A   1      43.145  19.737   0.308  1.00  0.00    +0.000 O 
BRANCH    3    2
ATOM      2  C2  UNL A   1      41.253  20.185   1.810  1.00  0.00    +0.000 C 
ATOM     95  H4  UNL A   1      41.250  20.601   2.797  1.00  0.00    +0.000 H 
BRANCH    2    1
ATOM      1  C1  UNL A   1      40.959  18.679   1.806  1.00  0.00    +0.000 C 
ATOM     92  H1  UNL A   1      41.385  18.235   0.931  1.00  0.00    +0.000 H 
ATOM     93  H2  UNL A   1      39.901  18.522   1.806  1.00  0.00    +0.000 H 
ATOM     94  H3  UNL A   1      41.387  18.230   2.678  1.00  0.00    +0.000 H 
ENDBRANCH    2    1
BRANCH    2   78
ATOM    137  H46 UNL A   1      36.813  21.618   1.275  1.00  0.00    +0.000 H 
ATOM     78  C55 UNL A   1      40.128  20.973   1.115  1.00  0.00    +0.000 C 
ATOM     79  C56 UNL A   1      40.365  21.702  -0.067  1.00  0.00    +0.000 C 
ATOM     80  C57 UNL A   1      39.347  22.377  -0.745  1.00  0.00    +0.000 C 
ATOM     81  C58 UNL A   1      38.042  22.369  -0.261  1.00  0.00    +0.000 C 
ATOM     89  C65 UNL A   1      37.778  21.656   0.912  1.00  0.00    +0.000 C 
ATOM     90  C66 UNL A   1      38.804  20.992   1.604  1.00  0.00    +0.000 C 
ATOM     91 Br1  UNL A   1      38.287  20.201   3.260  1.00  0.00    +0.000 Br
ATOM    124  H33 UNL A   1      41.325  21.739  -0.445  1.00  0.00    +0.000 H 
ATOM    125  H34 UNL A   1      39.564  22.888  -1.614  1.00  0.00    +0.000 H 
BRANCH   81   82
ATOM     82  C59 UNL A   1      36.955  23.139  -0.969  1.00  0.00    +0.000 C 
ATOM    126  H35 UNL A   1      37.415  23.945  -1.500  1.00  0.00    +0.000 H 
ATOM    127  H36 UNL A   1      36.276  23.453  -0.204  1.00  0.00    +0.000 H 
BRANCH   82   83
ATOM    129  H38 UNL A   1      34.339  23.411  -1.383  1.00  0.00    +0.000 H 
ATOM    130  H39 UNL A   1      34.175  21.703  -1.222  1.00  0.00    +0.000 H 
ATOM    131  H40 UNL A   1      33.668  23.372  -3.565  1.00  0.00    +0.000 H 
ATOM    132  H41 UNL A   1      33.207  21.730  -3.336  1.00  0.00    +0.000 H 
ATOM    133  H42 UNL A   1      35.083  22.353  -5.137  1.00  0.00    +0.000 H 
ATOM    134  H43 UNL A   1      35.280  20.920  -4.239  1.00  0.00    +0.000 H 
ATOM    135  H44 UNL A   1      36.501  23.659  -3.673  1.00  0.00    +0.000 H 
ATOM     83  C60 UNL A   1      36.112  22.334  -1.971  1.00  0.00    +0.000 C 
ATOM     84  C61 UNL A   1      34.586  22.474  -1.838  1.00  0.00    +0.000 C 
ATOM     85  C62 UNL A   1      34.028  22.411  -3.263  1.00  0.00    +0.000 C 
ATOM     86  C63 UNL A   1      35.194  21.982  -4.139  1.00  0.00    +0.000 C 
ATOM     87  C64 UNL A   1      36.391  22.619  -3.450  1.00  0.00    +0.000 C 
ATOM    128  H37 UNL A   1      36.431  21.352  -1.693  1.00  0.00    +0.000 H 
BRANCH   87   88
ATOM    136  H45 UNL A   1      37.475  21.562  -4.701  1.00  0.00    +0.000 H 
ATOM     88  O3  UNL A   1      37.609  22.029  -3.862  1.00  0.00    +0.000 O 
ENDBRANCH   87   88
ENDBRANCH   82   83
ENDBRANCH   81   82
ENDBRANCH    2   78
ENDBRANCH    3    2
ENDBRANCH    5    3
ENDBRANCH    6    5
ENDBRANCH    7    6
ENDBRANCH    8    7
ENDBRANCH    9    8
ENDBRANCH   10    9
ENDBRANCH   11   10
ENDBRANCH   12   11
ENDBRANCH   13   12
ENDBRANCH   15   13
ENDBRANCH   19   18
BRANCH   23   24
ATOM     33  C24 UNL A   1      58.779  18.344   9.539  1.00  0.00    +0.000 C 
ATOM     34  F5  UNL A   1      58.825  19.685   9.520  1.00  0.00    +0.000 F 
ATOM     24  C19 UNL A   1      58.041  17.676  10.529  1.00  0.00    +0.000 C 
ATOM     25  C20 UNL A   1      58.023  16.273  10.499  1.00  0.00    +0.000 C 
ATOM     26  F1  UNL A   1      57.342  15.588  11.430  1.00  0.00    +0.000 F 
ATOM     27  C21 UNL A   1      58.728  15.567   9.528  1.00  0.00    +0.000 C 
ATOM     28  F2  UNL A   1      58.724  14.227   9.540  1.00  0.00    +0.000 F 
ATOM     29  C22 UNL A   1      59.441  16.249   8.552  1.00  0.00    +0.000 C 
ATOM     30  F3  UNL A   1      60.109  15.569   7.610  1.00  0.00    +0.000 F 
ATOM     31  C23 UNL A   1      59.463  17.636   8.554  1.00  0.00    +0.000 C 
ATOM     32  F4  UNL A   1      60.141  18.296   7.606  1.00  0.00    +0.000 F 
ENDBRANCH   23   24
BRANCH   40   41
ATOM     41  C30 UNL A   1      58.902  20.193  17.227  1.00  0.00    +0.000 C 
ATOM     42  C31 UNL A   1      59.177  19.075  18.028  1.00  0.00    +0.000 C 
ATOM     43  F6  UNL A   1      58.455  17.953  17.890  1.00  0.00    +0.000 F 
ATOM     44  C32 UNL A   1      60.165  19.122  19.006  1.00  0.00    +0.000 C 
ATOM     45  F7  UNL A   1      60.377  18.060  19.794  1.00  0.00    +0.000 F 
ATOM     46  C33 UNL A   1      60.919  20.274  19.180  1.00  0.00    +0.000 C 
ATOM     47  F8  UNL A   1      61.871  20.318  20.122  1.00  0.00    +0.000 F 
ATOM     48  C34 UNL A   1      60.679  21.384  18.384  1.00  0.00    +0.000 C 
ATOM     49  F9  UNL A   1      61.413  22.494  18.543  1.00  0.00    +0.000 F 
ATOM     50  C35 UNL A   1      59.673  21.349  17.423  1.00  0.00    +0.000 C 
ATOM     51  F10 UNL A   1      59.452  22.444  16.679  1.00  0.00    +0.000 F 
ENDBRANCH   40   41
BRANCH   55   56
ATOM     65  C44 UNL A   1      52.334  24.073  17.087  1.00  0.00    +0.000 C 
ATOM     66  F15 UNL A   1      53.050  24.795  16.213  1.00  0.00    +0.000 F 
ATOM     56  C39 UNL A   1      52.405  22.674  17.068  1.00  0.00    +0.000 C 
ATOM     57  C40 UNL A   1      51.642  21.967  18.007  1.00  0.00    +0.000 C 
ATOM     58  F11 UNL A   1      51.661  20.626  18.013  1.00  0.00    +0.000 F 
ATOM     59  C41 UNL A   1      50.819  22.633  18.912  1.00  0.00    +0.000 C 
ATOM     60  F12 UNL A   1      50.060  21.932  19.766  1.00  0.00    +0.000 F 
ATOM     61  C42 UNL A   1      50.767  24.018  18.916  1.00  0.00    +0.000 C 
ATOM     62  F13 UNL A   1      49.973  24.659  19.785  1.00  0.00    +0.000 F 
ATOM     63  C43 UNL A   1      51.531  24.740  18.011  1.00  0.00    +0.000 C 
ATOM     64  F14 UNL A   1      51.494  26.079  18.020  1.00  0.00    +0.000 F 
ENDBRANCH   55   56
TORSDOF 20
ENDMDL
MODEL 2
REMARK VINA RESULT:     -11.3     20.173     25.466
ROOT
ATOM     19  C15 UNL A   1      38.959  29.662  30.071  1.00  0.00    +0.000 C 
ATOM     20  C16 UNL A   1      39.492  30.258  31.343  1.00  0.00    +0.000 C 
ATOM     21  N3  UNL A   1      40.604  29.987  31.982  1.00  0.00    +0.000 N 
ATOM     22  C17 UNL A   1      40.628  30.838  33.078  1.00  0.00    +0.000 C 
ATOM     23  C18 UNL A   1      41.541  30.903  34.077  1.00  0.00    +0.000 C 
ATOM     35  C25 UNL A   1      42.705  30.063  34.174  1.00  0.00    +0.000 C 
ATOM     36  C26 UNL A   1      43.663  30.023  35.172  1.00  0.00    +0.000 C 
ATOM     37  C27 UNL A   1      44.624  29.069  34.822  1.00  0.00    +0.000 C 
ATOM     38  C28 UNL A   1      44.244  28.486  33.624  1.00  0.00    +0.000 C 
ATOM     39  N4  UNL A   1      43.069  29.109  33.235  1.00  0.00    +0.000 N 
ATOM     40  C29 UNL A   1      44.902  27.440  32.889  1.00  0.00    +0.000 C 
ATOM     52  C36 UNL A   1      44.460  26.916  31.719  1.00  0.00    +0.000 C 
ATOM     53  N5  UNL A   1      43.328  27.246  30.989  1.00  0.00    +0.000 N 
ATOM     54  C37 UNL A   1      43.349  26.481  29.926  1.00  0.00    +0.000 C 
ATOM     55  C38 UNL A   1      42.356  26.391  28.799  1.00  0.00    +0.000 C 
ATOM     67  C45 UNL A   1      41.255  27.165  28.828  1.00  0.00    +0.000 C 
ATOM     68  C46 UNL A   1      40.200  27.173  27.821  1.00  0.00    +0.000 C 
ATOM     69  C47 UNL A   1      39.276  28.085  28.160  1.00  0.00    +0.000 C 
ATOM     70  C48 UNL A   1      39.661  28.707  29.429  1.00  0.00    +0.000 C 
ATOM     71  N6  UNL A   1      40.849  28.100  29.749  1.00  0.00    +0.000 N 
ATOM     72  C49 UNL A   1      44.516  25.590  29.852  1.00  0.00    +0.000 C 
ATOM     73  C50 UNL A   1      45.138  25.865  30.989  1.00  0.00    +0.000 C 
ATOM     74  C51 UNL A   1      39.445  31.668  32.996  1.00  0.00    +0.000 C 
ATOM     75  C52 UNL A   1      38.682  31.313  31.971  1.00  0.00    +0.000 C 
ATOM    112  H21 UNL A   1      43.666  30.600  36.029  1.00  0.00    +0.000 H 
ATOM    113  H22 UNL A   1      45.472  28.839  35.363  1.00  0.00    +0.000 H 
ATOM    114  H23 UNL A   1      42.567  28.905  32.413  1.00  0.00    +0.000 H 
ATOM    115  H24 UNL A   1      40.169  26.573  26.981  1.00  0.00    +0.000 H 
ATOM    116  H25 UNL A   1      38.430  28.312  27.615  1.00  0.00    +0.000 H 
ATOM    117  H26 UNL A   1      41.361  28.312  30.563  1.00  0.00    +0.000 H 
ATOM    118  H27 UNL A   1      44.782  24.925  29.108  1.00  0.00    +0.000 H 
ATOM    119  H28 UNL A   1      45.995  25.391  31.314  1.00  0.00    +0.000 H 
ATOM    120  H29 UNL A   1      39.225  32.437  33.648  1.00  0.00    +0.000 H 
ATOM    121  H30 UNL A   1      37.759  31.679  31.689  1.00  0.00    +0.000 H 
ENDROOT
BRANCH   19   18
ATOM     76  C53 UNL A   1      37.666  31.333  28.730  1.00  0.00    +0.000 C 
ATOM     77  C54 UNL A   1      36.477  31.785  28.158  1.00  0.00    +0.000 C 
ATOM    110  H19 UNL A   1      34.446  29.306  29.149  1.00  0.00    +0.000 H 
ATOM     15  C11 UNL A   1      35.315  31.014  28.259  1.00  0.00    +0.000 C 
ATOM     16  C12 UNL A   1      35.315  29.853  29.036  1.00  0.00    +0.000 C 
ATOM     17  C13 UNL A   1      36.491  29.430  29.659  1.00  0.00    +0.000 C 
ATOM    111  H20 UNL A   1      36.484  28.586  30.252  1.00  0.00    +0.000 H 
ATOM     18  C14 UNL A   1      37.685  30.150  29.483  1.00  0.00    +0.000 C 
ATOM    122  H31 UNL A   1      38.537  31.871  28.597  1.00  0.00    +0.000 H 
ATOM    123  H32 UNL A   1      36.456  32.690  27.661  1.00  0.00    +0.000 H 
BRANCH   15   13
ATOM     13  C10 UNL A   1      34.062  31.411  27.577  1.00  0.00    +0.000 C 
ATOM     14  O2  UNL A   1      33.629  32.550  27.722  1.00  0.00    +0.000 O 
BRANCH   13   12
ATOM     12  N2  UNL A   1      33.376  30.508  26.806  1.00  0.00    +0.000 N 
ATOM    109  H18 UNL A   1      33.736  30.368  25.900  1.00  0.00    +0.000 H 
BRANCH   12   11
ATOM     11  C9  UNL A   1      32.194  29.727  27.131  1.00  0.00    +0.000 C 
ATOM    108  H17 UNL A   1      31.412  30.028  26.466  1.00  0.00    +0.000 H 
ATOM    107  H16 UNL A   1      31.933  29.908  28.153  1.00  0.00    +0.000 H 
BRANCH   11   10
ATOM    105  H14 UNL A   1      32.315  27.756  27.896  1.00  0.00    +0.000 H 
ATOM     10  C8  UNL A   1      32.412  28.228  26.941  1.00  0.00    +0.000 C 
ATOM    106  H15 UNL A   1      31.678  27.909  26.230  1.00  0.00    +0.000 H 
BRANCH   10    9
ATOM      9  C7  UNL A   1      33.770  27.835  26.354  1.00  0.00    +0.000 C 
ATOM    103  H12 UNL A   1      34.277  28.731  26.067  1.00  0.00    +0.000 H 
ATOM    104  H13 UNL A   1      34.274  27.283  27.120  1.00  0.00    +0.000 H 
BRANCH    9    8
ATOM    101  H10 UNL A   1      34.444  26.143  25.269  1.00  0.00    +0.000 H 
ATOM    102  H11 UNL A   1      32.707  26.548  25.089  1.00  0.00    +0.000 H 
ATOM      8  C6  UNL A   1      33.713  26.912  25.136  1.00  0.00    +0.000 C 
BRANCH    8    7
ATOM     99  H8  UNL A   1      35.037  27.687  23.665  1.00  0.00    +0.000 H 
ATOM    100  H9  UNL A   1      33.525  26.959  23.044  1.00  0.00    +0.000 H 
ATOM      7  C5  UNL A   1      33.978  27.586  23.782  1.00  0.00    +0.000 C 
BRANCH    7    6
ATOM     97  H6  UNL A   1      33.127  29.377  24.577  1.00  0.00    +0.000 H 
ATOM     98  H7  UNL A   1      34.043  29.595  23.087  1.00  0.00    +0.000 H 
ATOM      6  C4  UNL A   1      33.347  28.974  23.610  1.00  0.00    +0.000 C 
BRANCH    6    5
ATOM      5  N1  UNL A   1      32.122  28.912  22.835  1.00  0.00    +0.000 N 
ATOM     96  H5  UNL A   1      32.193  29.035  21.861  1.00  0.00    +0.000 H 
BRANCH    5    3
ATOM      3  C3  UNL A   1      30.873  28.695  23.359  1.00  0.00    +0.000 C 
ATOM      4  O1  UNL A   1      30.443  29.561  24.122  1.00  0.00    +0.000 O 
BRANCH    3    2
ATOM      2  C2  UNL A   1      30.091  27.435  22.943  1.00  0.00    +0.000 C 
ATOM     95  H4  UNL A   1      30.188  27.347  21.880  1.00  0.00    +0.000 H 
BRANCH    2    1
ATOM      1  C1  UNL A   1      28.636  27.631  23.386  1.00  0.00    +0.000 C 
ATOM     92  H1  UNL A   1      28.414  26.961  24.190  1.00  0.00    +0.000 H 
ATOM     93  H2  UNL A   1      27.982  27.429  22.563  1.00  0.00    +0.000 H 
ATOM     94  H3  UNL A   1      28.496  28.640  23.714  1.00  0.00    +0.000 H 
ENDBRANCH    2    1
BRANCH    2   78
ATOM    137  H46 UNL A   1      32.494  23.429  22.462  1.00  0.00    +0.000 H 
ATOM     78  C55 UNL A   1      30.647  26.087  23.438  1.00  0.00    +0.000 C 
ATOM     79  C56 UNL A   1      30.327  25.587  24.714  1.00  0.00    +0.000 C 
ATOM     80  C57 UNL A   1      30.774  24.341  25.162  1.00  0.00    +0.000 C 
ATOM     81  C58 UNL A   1      31.580  23.542  24.356  1.00  0.00    +0.000 C 
ATOM     89  C65 UNL A   1      31.916  24.015  23.085  1.00  0.00    +0.000 C 
ATOM     90  C66 UNL A   1      31.482  25.275  22.640  1.00  0.00    +0.000 C 
ATOM     91 Br1  UNL A   1      32.162  25.817  20.944  1.00  0.00    +0.000 Br
ATOM    124  H33 UNL A   1      29.742  26.160  25.342  1.00  0.00    +0.000 H 
ATOM    125  H34 UNL A   1      30.504  24.008  26.100  1.00  0.00    +0.000 H 
BRANCH   81   82
ATOM     82  C59 UNL A   1      32.100  22.219  24.860  1.00  0.00    +0.000 C 
ATOM    126  H35 UNL A   1      31.609  21.442  24.313  1.00  0.00    +0.000 H 
ATOM    127  H36 UNL A   1      31.896  22.207  25.910  1.00  0.00    +0.000 H 
BRANCH   82   83
ATOM    129  H38 UNL A   1      33.992  23.597  26.128  1.00  0.00    +0.000 H 
ATOM    130  H39 UNL A   1      34.783  23.830  24.616  1.00  0.00    +0.000 H 
ATOM    131  H40 UNL A   1      35.727  22.369  26.963  1.00  0.00    +0.000 H 
ATOM    132  H41 UNL A   1      36.650  22.846  25.592  1.00  0.00    +0.000 H 
ATOM    133  H42 UNL A   1      36.137  20.257  26.023  1.00  0.00    +0.000 H 
ATOM    134  H43 UNL A   1      36.132  20.817  24.415  1.00  0.00    +0.000 H 
ATOM    135  H44 UNL A   1      33.736  20.451  26.270  1.00  0.00    +0.000 H 
ATOM     83  C60 UNL A   1      33.616  22.003  24.726  1.00  0.00    +0.000 C 
ATOM     84  C61 UNL A   1      34.511  23.092  25.340  1.00  0.00    +0.000 C 
ATOM     85  C62 UNL A   1      35.742  22.368  25.893  1.00  0.00    +0.000 C 
ATOM     86  C63 UNL A   1      35.652  20.946  25.362  1.00  0.00    +0.000 C 
ATOM     87  C64 UNL A   1      34.153  20.696  25.315  1.00  0.00    +0.000 C 
ATOM    128  H37 UNL A   1      33.683  22.010  23.659  1.00  0.00    +0.000 H 
BRANCH   87   88
ATOM    136  H45 UNL A   1      33.419  18.897  25.023  1.00  0.00    +0.000 H 
ATOM     88  O3  UNL A   1      33.831  19.593  24.488  1.00  0.00    +0.000 O 
ENDBRANCH   87   88
ENDBRANCH   82   83
ENDBRANCH   81   82
ENDBRANCH    2   78
ENDBRANCH    3    2
ENDBRANCH    5    3
ENDBRANCH    6    5
ENDBRANCH    7    6
ENDBRANCH    8    7
ENDBRANCH    9    8
ENDBRANCH   10    9
ENDBRANCH   11   10
ENDBRANCH   12   11
ENDBRANCH   13   12
ENDBRANCH   15   13
ENDBRANCH   19   18
BRANCH   23   24
ATOM     33  C24 UNL A   1      40.361  31.677  36.169  1.00  0.00    +0.000 C 
ATOM     34  F5  UNL A   1      39.679  30.521  36.199  1.00  0.00    +0.000 F 
ATOM     24  C19 UNL A   1      41.311  31.912  35.163  1.00  0.00    +0.000 C 
ATOM     25  C20 UNL A   1      41.991  33.139  35.177  1.00  0.00    +0.000 C 
ATOM     26  F1  UNL A   1      42.917  33.406  34.243  1.00  0.00    +0.000 F 
ATOM     27  C21 UNL A   1      41.741  34.086  36.166  1.00  0.00    +0.000 C 
ATOM     28  F2  UNL A   1      42.428  35.237  36.178  1.00  0.00    +0.000 F 
ATOM     29  C22 UNL A   1      40.789  33.838  37.143  1.00  0.00    +0.000 C 
ATOM     30  F3  UNL A   1      40.541  34.755  38.088  1.00  0.00    +0.000 F 
ATOM     31  C23 UNL A   1      40.096  32.637  37.143  1.00  0.00    +0.000 C 
ATOM     32  F4  UNL A   1      39.167  32.400  38.079  1.00  0.00    +0.000 F 
ENDBRANCH   23   24
BRANCH   40   41
ATOM     41  C30 UNL A   1      46.166  26.865  33.458  1.00  0.00    +0.000 C 
ATOM     42  C31 UNL A   1      46.146  25.752  34.311  1.00  0.00    +0.000 C 
ATOM     43  F6  UNL A   1      44.977  25.197  34.668  1.00  0.00    +0.000 F 
ATOM     44  C32 UNL A   1      47.325  25.233  34.837  1.00  0.00    +0.000 C 
ATOM     45  F7  UNL A   1      47.279  24.200  35.690  1.00  0.00    +0.000 F 
ATOM     46  C33 UNL A   1      48.546  25.794  34.495  1.00  0.00    +0.000 C 
ATOM     47  F8  UNL A   1      49.681  25.292  35.001  1.00  0.00    +0.000 F 
ATOM     48  C34 UNL A   1      48.591  26.882  33.635  1.00  0.00    +0.000 C 
ATOM     49  F9  UNL A   1      49.771  27.418  33.295  1.00  0.00    +0.000 F 
ATOM     50  C35 UNL A   1      47.412  27.420  33.129  1.00  0.00    +0.000 C 
ATOM     51  F10 UNL A   1      47.484  28.482  32.313  1.00  0.00    +0.000 F 
ENDBRANCH   40   41
BRANCH   55   56
ATOM     65  C44 UNL A   1      41.892  24.221  27.610  1.00  0.00    +0.000 C 
ATOM     66  F15 UNL A   1      41.043  23.873  28.588  1.00  0.00    +0.000 F 
ATOM     56  C39 UNL A   1      42.573  25.445  27.674  1.00  0.00    +0.000 C 
ATOM     57  C40 UNL A   1      43.454  25.758  26.630  1.00  0.00    +0.000 C 
ATOM     58  F11 UNL A   1      44.111  26.927  26.637  1.00  0.00    +0.000 F 
ATOM     59  C41 UNL A   1      43.626  24.895  25.551  1.00  0.00    +0.000 C 
ATOM     60  F12 UNL A   1      44.435  25.242  24.540  1.00  0.00    +0.000 F 
ATOM     61  C42 UNL A   1      42.945  23.688  25.510  1.00  0.00    +0.000 C 
ATOM     62  F13 UNL A   1      43.109  22.858  24.471  1.00  0.00    +0.000 F 
ATOM     63  C43 UNL A   1      42.085  23.346  26.544  1.00  0.00    +0.000 C 
ATOM     64  F14 UNL A   1      41.435  22.174  26.514  1.00  0.00    +0.000 F 
ENDBRANCH   55   56
TORSDOF 20
ENDMDL
MODEL 3
REMARK VINA RESULT:     -11.3     19.788     24.145
ROOT
ATOM     19  C15 UNL A   1      39.858  28.906  29.327  1.00  0.00    +0.000 C 
ATOM     20  C16 UNL A   1      40.702  29.799  30.193  1.00  0.00    +0.000 C 
ATOM     21  N3  UNL A   1      41.940  29.637  30.589  1.00  0.00    +0.000 N 
ATOM     22  C17 UNL A   1      42.247  30.761  31.343  1.00  0.00    +0.000 C 
ATOM     23  C18 UNL A   1      43.387  31.040  32.020  1.00  0.00    +0.000 C 
ATOM     35  C25 UNL A   1      44.536  30.175  32.072  1.00  0.00    +0.000 C 
ATOM     36  C26 UNL A   1      45.719  30.350  32.769  1.00  0.00    +0.000 C 
ATOM     37  C27 UNL A   1      46.557  29.264  32.491  1.00  0.00    +0.000 C 
ATOM     38  C28 UNL A   1      45.881  28.394  31.652  1.00  0.00    +0.000 C 
ATOM     39  N4  UNL A   1      44.646  28.968  31.398  1.00  0.00    +0.000 N 
ATOM     40  C29 UNL A   1      46.327  27.133  31.122  1.00  0.00    +0.000 C 
ATOM     52  C36 UNL A   1      45.597  26.332  30.307  1.00  0.00    +0.000 C 
ATOM     53  N5  UNL A   1      44.315  26.526  29.814  1.00  0.00    +0.000 N 
ATOM     54  C37 UNL A   1      44.061  25.489  29.055  1.00  0.00    +0.000 C 
ATOM     55  C38 UNL A   1      42.811  25.156  28.286  1.00  0.00    +0.000 C 
ATOM     67  C45 UNL A   1      41.755  25.989  28.355  1.00  0.00    +0.000 C 
ATOM     68  C46 UNL A   1      40.475  25.789  27.683  1.00  0.00    +0.000 C 
ATOM     69  C47 UNL A   1      39.671  26.829  27.954  1.00  0.00    +0.000 C 
ATOM     70  C48 UNL A   1      40.370  27.757  28.845  1.00  0.00    +0.000 C 
ATOM     71  N6  UNL A   1      41.600  27.177  29.028  1.00  0.00    +0.000 N 
ATOM     72  C49 UNL A   1      45.169  24.527  28.963  1.00  0.00    +0.000 C 
ATOM     73  C50 UNL A   1      46.063  25.067  29.778  1.00  0.00    +0.000 C 
ATOM     74  C51 UNL A   1      41.083  31.622  31.312  1.00  0.00    +0.000 C 
ATOM     75  C52 UNL A   1      40.082  31.048  30.659  1.00  0.00    +0.000 C 
ATOM    112  H21 UNL A   1      45.944  31.145  33.387  1.00  0.00    +0.000 H 
ATOM    113  H22 UNL A   1      47.516  29.135  32.851  1.00  0.00    +0.000 H 
ATOM    114  H23 UNL A   1      43.948  28.576  30.824  1.00  0.00    +0.000 H 
ATOM    115  H24 UNL A   1      40.228  24.978  27.093  1.00  0.00    +0.000 H 
ATOM    116  H25 UNL A   1      38.713  26.955  27.591  1.00  0.00    +0.000 H 
ATOM    117  H26 UNL A   1      42.306  27.573  29.590  1.00  0.00    +0.000 H 
ATOM    118  H27 UNL A   1      45.233  23.659  28.409  1.00  0.00    +0.000 H 
ATOM    119  H28 UNL A   1      46.975  24.642  30.007  1.00  0.00    +0.000 H 
ATOM    120  H29 UNL A   1      41.040  32.560  31.739  1.00  0.00    +0.000 H 
ATOM    121  H30 UNL A   1      39.118  31.388  30.518  1.00  0.00    +0.000 H 
ENDROOT
BRANCH   19   18
ATOM     76  C53 UNL A   1      37.431  29.162  29.877  1.00  0.00    +0.000 C 
ATOM     77  C54 UNL A   1      36.135  29.553  29.540  1.00  0.00    +0.000 C 
ATOM    110  H19 UNL A   1      36.725  30.695  26.441  1.00  0.00    +0.000 H 
ATOM     15  C11 UNL A   1      35.888  30.169  28.309  1.00  0.00    +0.000 C 
ATOM     16  C12 UNL A   1      36.916  30.282  27.368  1.00  0.00    +0.000 C 
ATOM     17  C13 UNL A   1      38.201  29.836  27.683  1.00  0.00    +0.000 C 
ATOM    111  H20 UNL A   1      38.953  29.898  26.979  1.00  0.00    +0.000 H 
ATOM     18  C14 UNL A   1      38.476  29.302  28.954  1.00  0.00    +0.000 C 
ATOM    122  H31 UNL A   1      37.620  28.768  30.812  1.00  0.00    +0.000 H 
ATOM    123  H32 UNL A   1      35.358  29.386  30.199  1.00  0.00    +0.000 H 
BRANCH   15   13
ATOM     13  C10 UNL A   1      34.548  30.690  27.960  1.00  0.00    +0.000 C 
ATOM     14  O2  UNL A   1      34.149  31.730  28.475  1.00  0.00    +0.000 O 
BRANCH   13   12
ATOM     12  N2  UNL A   1      33.743  30.006  27.085  1.00  0.00    +0.000 N 
ATOM    109  H18 UNL A   1      33.922  30.172  26.131  1.00  0.00    +0.000 H 
BRANCH   12   11
ATOM     11  C9  UNL A   1      32.665  29.070  27.359  1.00  0.00    +0.000 C 
ATOM    108  H17 UNL A   1      31.762  29.492  26.972  1.00  0.00    +0.000 H 
ATOM    107  H16 UNL A   1      32.607  28.916  28.417  1.00  0.00    +0.000 H 
BRANCH   11   10
ATOM    105  H14 UNL A   1      32.871  26.964  27.437  1.00  0.00    +0.000 H 
ATOM     10  C8  UNL A   1      32.875  27.719  26.679  1.00  0.00    +0.000 C 
ATOM    106  H15 UNL A   1      32.080  27.618  25.970  1.00  0.00    +0.000 H 
BRANCH   10    9
ATOM      9  C7  UNL A   1      34.174  27.584  25.882  1.00  0.00    +0.000 C 
ATOM    103  H12 UNL A   1      34.602  28.559  25.779  1.00  0.00    +0.000 H 
ATOM    104  H13 UNL A   1      34.789  26.902  26.432  1.00  0.00    +0.000 H 
BRANCH    9    8
ATOM    101  H10 UNL A   1      34.793  26.252  24.353  1.00  0.00    +0.000 H 
ATOM    102  H11 UNL A   1      33.032  26.581  24.442  1.00  0.00    +0.000 H 
ATOM      8  C6  UNL A   1      34.023  26.984  24.484  1.00  0.00    +0.000 C 
BRANCH    8    7
ATOM     99  H8  UNL A   1      35.082  28.448  23.365  1.00  0.00    +0.000 H 
ATOM    100  H9  UNL A   1      33.959  27.416  22.429  1.00  0.00    +0.000 H 
ATOM      7  C5  UNL A   1      34.119  27.982  23.321  1.00  0.00    +0.000 C 
BRANCH    7    6
ATOM     97  H6  UNL A   1      32.901  29.419  24.328  1.00  0.00    +0.000 H 
ATOM     98  H7  UNL A   1      33.407  29.890  22.707  1.00  0.00    +0.000 H 
ATOM      6  C4  UNL A   1      33.056  29.088  23.322  1.00  0.00    +0.000 C 
BRANCH    6    5
ATOM      5  N1  UNL A   1      31.794  28.618  22.781  1.00  0.00    +0.000 N 
ATOM     96  H5  UNL A   1      31.656  28.704  21.810  1.00  0.00    +0.000 H 
BRANCH    5    3
ATOM      3  C3  UNL A   1      30.782  28.064  23.521  1.00  0.00    +0.000 C 
ATOM      4  O1  UNL A   1      30.317  28.765  24.422  1.00  0.00    +0.000 O 
BRANCH    3    2
ATOM      2  C2  UNL A   1      30.276  26.653  23.166  1.00  0.00    +0.000 C 
ATOM     95  H4  UNL A   1      30.227  26.601  22.097  1.00  0.00    +0.000 H 
BRANCH    2    1
ATOM      1  C1  UNL A   1      28.902  26.480  23.825  1.00  0.00    +0.000 C 
ATOM     92  H1  UNL A   1      28.135  26.612  23.091  1.00  0.00    +0.000 H 
ATOM     93  H2  UNL A   1      28.783  27.210  24.599  1.00  0.00    +0.000 H 
ATOM     94  H3  UNL A   1      28.828  25.499  24.246  1.00  0.00    +0.000 H 
ENDBRANCH    2    1
BRANCH    2   78
ATOM    137  H46 UNL A   1      33.491  23.383  22.160  1.00  0.00    +0.000 H 
ATOM     78  C55 UNL A   1      31.211  25.481  23.512  1.00  0.00    +0.000 C 
ATOM     79  C56 UNL A   1      31.213  24.898  24.794  1.00  0.00    +0.000 C 
ATOM     80  C57 UNL A   1      32.012  23.797  25.113  1.00  0.00    +0.000 C 
ATOM     81  C58 UNL A   1      32.863  23.237  24.165  1.00  0.00    +0.000 C 
ATOM     89  C65 UNL A   1      32.885  23.797  22.885  1.00  0.00    +0.000 C 
ATOM     90  C66 UNL A   1      32.095  24.915  22.568  1.00  0.00    +0.000 C 
ATOM     91 Br1  UNL A   1      32.366  25.633  20.823  1.00  0.00    +0.000 Br
ATOM    124  H33 UNL A   1      30.603  25.299  25.524  1.00  0.00    +0.000 H 
ATOM    125  H34 UNL A   1      31.972  23.395  26.062  1.00  0.00    +0.000 H 
BRANCH   81   82
ATOM     82  C59 UNL A   1      33.760  22.079  24.526  1.00  0.00    +0.000 C 
ATOM    126  H35 UNL A   1      33.607  21.306  23.804  1.00  0.00    +0.000 H 
ATOM    127  H36 UNL A   1      33.490  21.802  25.524  1.00  0.00    +0.000 H 
BRANCH   82   83
ATOM    129  H38 UNL A   1      34.872  24.274  25.543  1.00  0.00    +0.000 H 
ATOM    130  H39 UNL A   1      35.780  24.442  24.089  1.00  0.00    +0.000 H 
ATOM    131  H40 UNL A   1      36.751  23.947  26.799  1.00  0.00    +0.000 H 
ATOM    132  H41 UNL A   1      37.681  24.413  25.429  1.00  0.00    +0.000 H 
ATOM    133  H42 UNL A   1      37.968  21.967  26.469  1.00  0.00    +0.000 H 
ATOM    134  H43 UNL A   1      38.045  22.131  24.776  1.00  0.00    +0.000 H 
ATOM    135  H44 UNL A   1      35.628  21.349  26.468  1.00  0.00    +0.000 H 
ATOM     83  C60 UNL A   1      35.265  22.390  24.573  1.00  0.00    +0.000 C 
ATOM     84  C61 UNL A   1      35.647  23.829  24.955  1.00  0.00    +0.000 C 
ATOM     85  C62 UNL A   1      36.939  23.723  25.771  1.00  0.00    +0.000 C 
ATOM     86  C63 UNL A   1      37.401  22.282  25.618  1.00  0.00    +0.000 C 
ATOM     87  C64 UNL A   1      36.092  21.514  25.518  1.00  0.00    +0.000 C 
ATOM    128  H37 UNL A   1      35.499  22.191  23.548  1.00  0.00    +0.000 H 
BRANCH   87   88
ATOM    136  H45 UNL A   1      35.602  19.622  25.326  1.00  0.00    +0.000 H 
ATOM     88  O3  UNL A   1      36.283  20.220  24.979  1.00  0.00    +0.000 O 
ENDBRANCH   87   88
ENDBRANCH   82   83
ENDBRANCH   81   82
ENDBRANCH    2   78
ENDBRANCH    3    2
ENDBRANCH    5    3
ENDBRANCH    6    5
ENDBRANCH    7    6
ENDBRANCH    8    7
ENDBRANCH    9    8
ENDBRANCH   10    9
ENDBRANCH   11   10
ENDBRANCH   12   11
ENDBRANCH   13   12
ENDBRANCH   15   13
ENDBRANCH   19   18
BRANCH   23   24
ATOM     33  C24 UNL A   1      43.992  33.484  32.193  1.00  0.00    +0.000 C 
ATOM     34  F5  UNL A   1      44.424  33.455  30.923  1.00  0.00    +0.000 F 
ATOM     24  C19 UNL A   1      43.446  32.332  32.780  1.00  0.00    +0.000 C 
ATOM     25  C20 UNL A   1      43.014  32.416  34.113  1.00  0.00    +0.000 C 
ATOM     26  F1  UNL A   1      42.475  31.345  34.715  1.00  0.00    +0.000 F 
ATOM     27  C21 UNL A   1      43.111  33.609  34.823  1.00  0.00    +0.000 C 
ATOM     28  F2  UNL A   1      42.661  33.675  36.084  1.00  0.00    +0.000 F 
ATOM     29  C22 UNL A   1      43.665  34.732  34.227  1.00  0.00    +0.000 C 
ATOM     30  F3  UNL A   1      43.769  35.876  34.916  1.00  0.00    +0.000 F 
ATOM     31  C23 UNL A   1      44.110  34.669  32.915  1.00  0.00    +0.000 C 
ATOM     32  F4  UNL A   1      44.657  35.749  32.340  1.00  0.00    +0.000 F 
ENDBRANCH   23   24
BRANCH   40   41
ATOM     41  C30 UNL A   1      47.694  26.650  31.507  1.00  0.00    +0.000 C 
ATOM     42  C31 UNL A   1      48.834  27.022  30.781  1.00  0.00    +0.000 C 
ATOM     43  F6  UNL A   1      48.717  27.797  29.692  1.00  0.00    +0.000 F 
ATOM     44  C32 UNL A   1      50.096  26.561  31.146  1.00  0.00    +0.000 C 
ATOM     45  F7  UNL A   1      51.166  26.888  30.408  1.00  0.00    +0.000 F 
ATOM     46  C33 UNL A   1      50.245  25.749  32.260  1.00  0.00    +0.000 C 
ATOM     47  F8  UNL A   1      51.460  25.307  32.612  1.00  0.00    +0.000 F 
ATOM     48  C34 UNL A   1      49.132  25.387  33.006  1.00  0.00    +0.000 C 
ATOM     49  F9  UNL A   1      49.276  24.611  34.089  1.00  0.00    +0.000 F 
ATOM     50  C35 UNL A   1      47.867  25.824  32.628  1.00  0.00    +0.000 C 
ATOM     51  F10 UNL A   1      46.807  25.444  33.359  1.00  0.00    +0.000 F 
ENDBRANCH   40   41
BRANCH   55   56
ATOM     65  C44 UNL A   1      43.077  23.906  26.118  1.00  0.00    +0.000 C 
ATOM     66  F15 UNL A   1      43.471  25.039  25.518  1.00  0.00    +0.000 F 
ATOM     56  C39 UNL A   1      42.729  23.914  27.476  1.00  0.00    +0.000 C 
ATOM     57  C40 UNL A   1      42.318  22.705  28.052  1.00  0.00    +0.000 C 
ATOM     58  F11 UNL A   1      41.996  22.660  29.353  1.00  0.00    +0.000 F 
ATOM     59  C41 UNL A   1      42.283  21.528  27.308  1.00  0.00    +0.000 C 
ATOM     60  F12 UNL A   1      41.936  20.376  27.897  1.00  0.00    +0.000 F 
ATOM     61  C42 UNL A   1      42.628  21.544  25.965  1.00  0.00    +0.000 C 
ATOM     62  F13 UNL A   1      42.596  20.412  25.250  1.00  0.00    +0.000 F 
ATOM     63  C43 UNL A   1      43.016  22.734  25.367  1.00  0.00    +0.000 C 
ATOM     64  F14 UNL A   1      43.337  22.756  24.066  1.00  0.00    +0.000 F 
ENDBRANCH   55   56
TORSDOF 20
ENDMDL
MODEL 4
REMARK VINA RESULT:     -11.2     27.691     33.564
ROOT
ATOM     19  C15 UNL A   1      46.528  50.915  18.042  1.00  0.00    +0.000 C 
ATOM     20  C16 UNL A   1      47.538  50.488  19.070  1.00  0.00    +0.000 C 
ATOM     21  N3  UNL A   1      48.620  51.108  19.474  1.00  0.00    +0.000 N 
ATOM     22  C17 UNL A   1      49.177  50.296  20.454  1.00  0.00    +0.000 C 
ATOM     23  C18 UNL A   1      50.335  50.469  21.136  1.00  0.00    +0.000 C 
ATOM     35  C25 UNL A   1      51.228  51.584  20.957  1.00  0.00    +0.000 C 
ATOM     36  C26 UNL A   1      52.446  51.823  21.569  1.00  0.00    +0.000 C 
ATOM     37  C27 UNL A   1      52.938  53.047  21.105  1.00  0.00    +0.000 C 
ATOM     38  C28 UNL A   1      52.045  53.553  20.175  1.00  0.00    +0.000 C 
ATOM     39  N4  UNL A   1      50.998  52.649  20.099  1.00  0.00    +0.000 N 
ATOM     40  C29 UNL A   1      52.139  54.769  19.412  1.00  0.00    +0.000 C 
ATOM     52  C36 UNL A   1      51.219  55.192  18.510  1.00  0.00    +0.000 C 
ATOM     53  N5  UNL A   1      50.030  54.588  18.128  1.00  0.00    +0.000 N 
ATOM     54  C37 UNL A   1      49.484  55.393  17.251  1.00  0.00    +0.000 C 
ATOM     55  C38 UNL A   1      48.199  55.232  16.484  1.00  0.00    +0.000 C 
ATOM     67  C45 UNL A   1      47.462  54.120  16.660  1.00  0.00    +0.000 C 
ATOM     68  C46 UNL A   1      46.209  53.817  15.975  1.00  0.00    +0.000 C 
ATOM     69  C47 UNL A   1      45.741  52.640  16.417  1.00  0.00    +0.000 C 
ATOM     70  C48 UNL A   1      46.678  52.090  17.399  1.00  0.00    +0.000 C 
ATOM     71  N6  UNL A   1      47.668  53.036  17.480  1.00  0.00    +0.000 N 
ATOM     72  C49 UNL A   1      50.259  56.615  16.994  1.00  0.00    +0.000 C 
ATOM     73  C50 UNL A   1      51.326  56.423  17.754  1.00  0.00    +0.000 C 
ATOM     74  C51 UNL A   1      48.292  49.163  20.618  1.00  0.00    +0.000 C 
ATOM     75  C52 UNL A   1      47.293  49.206  19.748  1.00  0.00    +0.000 C 
ATOM    112  H21 UNL A   1      52.911  51.203  22.251  1.00  0.00    +0.000 H 
ATOM    113  H22 UNL A   1      53.817  53.497  21.405  1.00  0.00    +0.000 H 
ATOM    114  H23 UNL A   1      50.207  52.748  19.520  1.00  0.00    +0.000 H 
ATOM    115  H24 UNL A   1      45.756  54.414  15.264  1.00  0.00    +0.000 H 
ATOM    116  H25 UNL A   1      44.861  52.194  16.115  1.00  0.00    +0.000 H 
ATOM    117  H26 UNL A   1      48.452  52.948  18.068  1.00  0.00    +0.000 H 
ATOM    118  H27 UNL A   1      50.031  57.414  16.382  1.00  0.00    +0.000 H 
ATOM    119  H28 UNL A   1      52.132  57.066  17.802  1.00  0.00    +0.000 H 
ATOM    120  H29 UNL A   1      48.421  48.420  21.322  1.00  0.00    +0.000 H 
ATOM    121  H30 UNL A   1      46.540  48.518  19.587  1.00  0.00    +0.000 H 
ENDROOT
BRANCH   19   18
ATOM     76  C53 UNL A   1      44.139  50.302  18.460  1.00  0.00    +0.000 C 
ATOM     77  C54 UNL A   1      43.008  49.532  18.187  1.00  0.00    +0.000 C 
ATOM    110  H19 UNL A   1      44.265  47.607  15.744  1.00  0.00    +0.000 H 
ATOM     15  C11 UNL A   1      43.036  48.590  17.154  1.00  0.00    +0.000 C 
ATOM     16  C12 UNL A   1      44.231  48.334  16.477  1.00  0.00    +0.000 C 
ATOM     17  C13 UNL A   1      45.380  49.064  16.791  1.00  0.00    +0.000 C 
ATOM    111  H20 UNL A   1      46.268  48.857  16.307  1.00  0.00    +0.000 H 
ATOM     18  C14 UNL A   1      45.334  50.077  17.763  1.00  0.00    +0.000 C 
ATOM    122  H31 UNL A   1      44.094  51.041  19.178  1.00  0.00    +0.000 H 
ATOM    123  H32 UNL A   1      42.151  49.658  18.748  1.00  0.00    +0.000 H 
BRANCH   15   13
ATOM     13  C10 UNL A   1      41.826  47.830  16.767  1.00  0.00    +0.000 C 
ATOM     14  O2  UNL A   1      40.716  48.287  17.024  1.00  0.00    +0.000 O 
BRANCH   13   12
ATOM     12  N2  UNL A   1      41.940  46.612  16.148  1.00  0.00    +0.000 N 
ATOM    109  H18 UNL A   1      42.076  46.646  15.173  1.00  0.00    +0.000 H 
BRANCH   12   11
ATOM     11  C9  UNL A   1      41.890  45.277  16.720  1.00  0.00    +0.000 C 
ATOM    108  H17 UNL A   1      41.251  44.682  16.102  1.00  0.00    +0.000 H 
ATOM    107  H16 UNL A   1      41.517  45.346  17.721  1.00  0.00    +0.000 H 
BRANCH   11   10
ATOM    105  H14 UNL A   1      43.401  44.092  15.826  1.00  0.00    +0.000 H 
ATOM     10  C8  UNL A   1      43.260  44.603  16.755  1.00  0.00    +0.000 C 
ATOM    106  H15 UNL A   1      43.971  45.386  16.925  1.00  0.00    +0.000 H 
BRANCH   10    9
ATOM      9  C7  UNL A   1      43.463  43.593  17.886  1.00  0.00    +0.000 C 
ATOM    103  H12 UNL A   1      43.206  42.624  17.514  1.00  0.00    +0.000 H 
ATOM    104  H13 UNL A   1      44.488  43.681  18.181  1.00  0.00    +0.000 H 
BRANCH    9    8
ATOM    101  H10 UNL A   1      43.070  44.682  19.662  1.00  0.00    +0.000 H 
ATOM    102  H11 UNL A   1      41.635  44.023  18.812  1.00  0.00    +0.000 H 
ATOM      8  C6  UNL A   1      42.637  43.850  19.147  1.00  0.00    +0.000 C 
BRANCH    8    7
ATOM     99  H8  UNL A   1      42.069  41.861  19.635  1.00  0.00    +0.000 H 
ATOM    100  H9  UNL A   1      43.557  42.462  20.427  1.00  0.00    +0.000 H 
ATOM      7  C5  UNL A   1      42.552  42.676  20.133  1.00  0.00    +0.000 C 
BRANCH    7    6
ATOM     97  H6  UNL A   1      40.864  43.459  21.181  1.00  0.00    +0.000 H 
ATOM     98  H7  UNL A   1      41.593  42.035  21.920  1.00  0.00    +0.000 H 
ATOM      6  C4  UNL A   1      41.781  42.966  21.427  1.00  0.00    +0.000 C 
BRANCH    6    5
ATOM      5  N1  UNL A   1      42.544  43.811  22.327  1.00  0.00    +0.000 N 
ATOM     96  H5  UNL A   1      42.315  44.768  22.355  1.00  0.00    +0.000 H 
BRANCH    5    3
ATOM      3  C3  UNL A   1      43.559  43.375  23.139  1.00  0.00    +0.000 C 
ATOM      4  O1  UNL A   1      43.302  42.418  23.870  1.00  0.00    +0.000 O 
BRANCH    3    2
ATOM      2  C2  UNL A   1      44.933  44.068  23.062  1.00  0.00    +0.000 C 
ATOM     95  H4  UNL A   1      45.667  43.332  23.320  1.00  0.00    +0.000 H 
BRANCH    2    1
ATOM      1  C1  UNL A   1      44.909  45.243  24.048  1.00  0.00    +0.000 C 
ATOM     92  H1  UNL A   1      45.903  45.611  24.189  1.00  0.00    +0.000 H 
ATOM     93  H2  UNL A   1      44.516  44.912  24.987  1.00  0.00    +0.000 H 
ATOM     94  H3  UNL A   1      44.290  46.025  23.658  1.00  0.00    +0.000 H 
ENDBRANCH    2    1
BRANCH    2   78
ATOM    137  H46 UNL A   1      47.224  43.539  18.998  1.00  0.00    +0.000 H 
ATOM     78  C55 UNL A   1      45.396  44.523  21.666  1.00  0.00    +0.000 C 
ATOM     79  C56 UNL A   1      45.095  45.808  21.176  1.00  0.00    +0.000 C 
ATOM     80  C57 UNL A   1      45.554  46.261  19.937  1.00  0.00    +0.000 C 
ATOM     81  C58 UNL A   1      46.324  45.439  19.119  1.00  0.00    +0.000 C 
ATOM     89  C65 UNL A   1      46.635  44.157  19.578  1.00  0.00    +0.000 C 
ATOM     90  C66 UNL A   1      46.160  43.694  20.817  1.00  0.00    +0.000 C 
ATOM     91 Br1  UNL A   1      46.558  41.871  21.210  1.00  0.00    +0.000 Br
ATOM    124  H33 UNL A   1      44.515  46.438  21.753  1.00  0.00    +0.000 H 
ATOM    125  H34 UNL A   1      45.319  47.215  19.623  1.00  0.00    +0.000 H 
BRANCH   81   82
ATOM     82  C59 UNL A   1      46.777  45.914  17.760  1.00  0.00    +0.000 C 
ATOM    126  H35 UNL A   1      46.666  46.977  17.729  1.00  0.00    +0.000 H 
ATOM    127  H36 UNL A   1      46.167  45.392  17.051  1.00  0.00    +0.000 H 
BRANCH   82   83
ATOM    129  H38 UNL A   1      47.868  46.173  15.346  1.00  0.00    +0.000 H 
ATOM    130  H39 UNL A   1      48.463  44.562  15.484  1.00  0.00    +0.000 H 
ATOM    131  H40 UNL A   1      49.974  47.055  15.297  1.00  0.00    +0.000 H 
ATOM    132  H41 UNL A   1      50.580  45.454  15.124  1.00  0.00    +0.000 H 
ATOM    133  H42 UNL A   1      51.272  46.923  17.248  1.00  0.00    +0.000 H 
ATOM    134  H43 UNL A   1      51.009  45.257  17.479  1.00  0.00    +0.000 H 
ATOM    135  H44 UNL A   1      49.037  47.540  17.943  1.00  0.00    +0.000 H 
ATOM     83  C60 UNL A   1      48.230  45.579  17.387  1.00  0.00    +0.000 C 
ATOM     84  C61 UNL A   1      48.552  45.549  15.884  1.00  0.00    +0.000 C 
ATOM     85  C62 UNL A   1      49.981  46.084  15.745  1.00  0.00    +0.000 C 
ATOM     86  C63 UNL A   1      50.528  46.159  17.163  1.00  0.00    +0.000 C 
ATOM     87  C64 UNL A   1      49.295  46.503  17.984  1.00  0.00    +0.000 C 
ATOM    128  H37 UNL A   1      48.279  44.598  17.808  1.00  0.00    +0.000 H 
BRANCH   87   88
ATOM    136  H45 UNL A   1      49.164  46.980  19.885  1.00  0.00    +0.000 H 
ATOM     88  O3  UNL A   1      49.490  46.233  19.360  1.00  0.00    +0.000 O 
ENDBRANCH   87   88
ENDBRANCH   82   83
ENDBRANCH   81   82
ENDBRANCH    2   78
ENDBRANCH    3    2
ENDBRANCH    5    3
ENDBRANCH    6    5
ENDBRANCH    7    6
ENDBRANCH    8    7
ENDBRANCH    9    8
ENDBRANCH   10    9
ENDBRANCH   11   10
ENDBRANCH   12   11
ENDBRANCH   13   12
ENDBRANCH   15   13
ENDBRANCH   19   18
BRANCH   23   24
ATOM     33  C24 UNL A   1      51.463  48.295  21.742  1.00  0.00    +0.000 C 
ATOM     34  F5  UNL A   1      51.888  48.175  20.475  1.00  0.00    +0.000 F 
ATOM     24  C19 UNL A   1      50.717  49.417  22.135  1.00  0.00    +0.000 C 
ATOM     25  C20 UNL A   1      50.293  49.490  23.471  1.00  0.00    +0.000 C 
ATOM     26  F1  UNL A   1      49.587  50.548  23.897  1.00  0.00    +0.000 F 
ATOM     27  C21 UNL A   1      50.618  48.487  24.381  1.00  0.00    +0.000 C 
ATOM     28  F2  UNL A   1      50.232  48.595  25.660  1.00  0.00    +0.000 F 
ATOM     29  C22 UNL A   1      51.347  47.381  23.968  1.00  0.00    +0.000 C 
ATOM     30  F3  UNL A   1      51.648  46.412  24.842  1.00  0.00    +0.000 F 
ATOM     31  C23 UNL A   1      51.765  47.283  22.649  1.00  0.00    +0.000 C 
ATOM     32  F4  UNL A   1      52.458  46.209  22.246  1.00  0.00    +0.000 F 
ENDBRANCH   23   24
BRANCH   40   41
ATOM     41  C30 UNL A   1      53.349  55.633  19.608  1.00  0.00    +0.000 C 
ATOM     42  C31 UNL A   1      53.371  56.658  20.564  1.00  0.00    +0.000 C 
ATOM     43  F6  UNL A   1      52.281  56.914  21.305  1.00  0.00    +0.000 F 
ATOM     44  C32 UNL A   1      54.499  57.457  20.731  1.00  0.00    +0.000 C 
ATOM     45  F7  UNL A   1      54.481  58.464  21.615  1.00  0.00    +0.000 F 
ATOM     46  C33 UNL A   1      55.635  57.224  19.971  1.00  0.00    +0.000 C 
ATOM     47  F8  UNL A   1      56.722  57.992  20.133  1.00  0.00    +0.000 F 
ATOM     48  C34 UNL A   1      55.643  56.200  19.035  1.00  0.00    +0.000 C 
ATOM     49  F9  UNL A   1      56.744  55.967  18.307  1.00  0.00    +0.000 F 
ATOM     50  C35 UNL A   1      54.508  55.417  18.847  1.00  0.00    +0.000 C 
ATOM     51  F10 UNL A   1      54.539  54.445  17.923  1.00  0.00    +0.000 F 
ENDBRANCH   40   41
BRANCH   55   56
ATOM     65  C44 UNL A   1      47.969  56.139  14.147  1.00  0.00    +0.000 C 
ATOM     66  F15 UNL A   1      48.607  55.060  13.670  1.00  0.00    +0.000 F 
ATOM     56  C39 UNL A   1      47.755  56.276  15.525  1.00  0.00    +0.000 C 
ATOM     57  C40 UNL A   1      47.089  57.426  15.971  1.00  0.00    +0.000 C 
ATOM     58  F11 UNL A   1      46.843  57.591  17.279  1.00  0.00    +0.000 F 
ATOM     59  C41 UNL A   1      46.631  58.387  15.073  1.00  0.00    +0.000 C 
ATOM     60  F12 UNL A   1      45.952  59.451  15.522  1.00  0.00    +0.000 F 
ATOM     61  C42 UNL A   1      46.856  58.232  13.714  1.00  0.00    +0.000 C 
ATOM     62  F13 UNL A   1      46.414  59.154  12.850  1.00  0.00    +0.000 F 
ATOM     63  C43 UNL A   1      47.534  57.113  13.251  1.00  0.00    +0.000 C 
ATOM     64  F14 UNL A   1      47.766  56.966  11.939  1.00  0.00    +0.000 F 
ENDBRANCH   55   56
TORSDOF 20
ENDMDL
MODEL 5
REMARK VINA RESULT:     -11.0     22.001     31.292
ROOT
ATOM     19  C15 UNL A   1      43.031  27.870  33.569  1.00  0.00    +0.000 C 
ATOM     20  C16 UNL A   1      42.841  27.601  32.103  1.00  0.00    +0.000 C 
ATOM     21  N3  UNL A   1      41.962  28.110  31.276  1.00  0.00    +0.000 N 
ATOM     22  C17 UNL A   1      42.238  27.547  30.037  1.00  0.00    +0.000 C 
ATOM     23  C18 UNL A   1      41.572  27.708  28.868  1.00  0.00    +0.000 C 
ATOM     35  C25 UNL A   1      40.408  28.538  28.701  1.00  0.00    +0.000 C 
ATOM     36  C26 UNL A   1      39.637  28.729  27.567  1.00  0.00    +0.000 C 
ATOM     37  C27 UNL A   1      38.627  29.646  27.872  1.00  0.00    +0.000 C 
ATOM     38  C28 UNL A   1      38.744  29.998  29.207  1.00  0.00    +0.000 C 
ATOM     39  N4  UNL A   1      39.844  29.316  29.701  1.00  0.00    +0.000 N 
ATOM     40  C29 UNL A   1      37.915  30.889  29.975  1.00  0.00    +0.000 C 
ATOM     52  C36 UNL A   1      38.094  31.177  31.287  1.00  0.00    +0.000 C 
ATOM     53  N5  UNL A   1      39.067  30.709  32.158  1.00  0.00    +0.000 N 
ATOM     54  C37 UNL A   1      38.833  31.294  33.307  1.00  0.00    +0.000 C 
ATOM     55  C38 UNL A   1      39.558  31.141  34.617  1.00  0.00    +0.000 C 
ATOM     67  C45 UNL A   1      40.593  30.285  34.700  1.00  0.00    +0.000 C 
ATOM     68  C46 UNL A   1      41.376  30.019  35.902  1.00  0.00    +0.000 C 
ATOM     69  C47 UNL A   1      42.342  29.134  35.610  1.00  0.00    +0.000 C 
ATOM     70  C48 UNL A   1      42.228  28.749  34.202  1.00  0.00    +0.000 C 
ATOM     71  N6  UNL A   1      41.164  29.482  33.742  1.00  0.00    +0.000 N 
ATOM     72  C49 UNL A   1      37.693  32.222  33.286  1.00  0.00    +0.000 C 
ATOM     73  C50 UNL A   1      37.253  32.081  32.045  1.00  0.00    +0.000 C 
ATOM     74  C51 UNL A   1      43.395  26.694  30.208  1.00  0.00    +0.000 C 
ATOM     75  C52 UNL A   1      43.773  26.650  31.478  1.00  0.00    +0.000 C 
ATOM    112  H21 UNL A   1      39.784  28.271  26.654  1.00  0.00    +0.000 H 
ATOM    113  H22 UNL A   1      37.915  30.001  27.214  1.00  0.00    +0.000 H 
ATOM    114  H23 UNL A   1      40.176  29.375  30.626  1.00  0.00    +0.000 H 
ATOM    115  H24 UNL A   1      41.213  30.443  36.830  1.00  0.00    +0.000 H 
ATOM    116  H25 UNL A   1      43.052  28.783  36.271  1.00  0.00    +0.000 H 
ATOM    117  H26 UNL A   1      40.838  29.437  32.814  1.00  0.00    +0.000 H 
ATOM    118  H27 UNL A   1      37.331  32.825  34.041  1.00  0.00    +0.000 H 
ATOM    119  H28 UNL A   1      36.418  32.553  31.665  1.00  0.00    +0.000 H 
ATOM    120  H29 UNL A   1      43.865  26.188  29.441  1.00  0.00    +0.000 H 
ATOM    121  H30 UNL A   1      44.524  26.092  31.915  1.00  0.00    +0.000 H 
ENDROOT
BRANCH   19   18
ATOM     76  C53 UNL A   1      43.885  26.042  35.049  1.00  0.00    +0.000 C 
ATOM     77  C54 UNL A   1      44.919  25.411  35.740  1.00  0.00    +0.000 C 
ATOM    110  H19 UNL A   1      47.435  27.465  34.905  1.00  0.00    +0.000 H 
ATOM     15  C11 UNL A   1      46.227  25.895  35.638  1.00  0.00    +0.000 C 
ATOM     16  C12 UNL A   1      46.477  27.082  34.944  1.00  0.00    +0.000 C 
ATOM     17  C13 UNL A   1      45.432  27.748  34.301  1.00  0.00    +0.000 C 
ATOM    111  H20 UNL A   1      45.614  28.636  33.809  1.00  0.00    +0.000 H 
ATOM     18  C14 UNL A   1      44.131  27.215  34.321  1.00  0.00    +0.000 C 
ATOM    122  H31 UNL A   1      42.933  25.644  35.074  1.00  0.00    +0.000 H 
ATOM    123  H32 UNL A   1      44.718  24.586  36.328  1.00  0.00    +0.000 H 
BRANCH   15   13
ATOM     13  C10 UNL A   1      47.364  25.190  36.271  1.00  0.00    +0.000 C 
ATOM     14  O2  UNL A   1      48.266  25.841  36.789  1.00  0.00    +0.000 O 
BRANCH   13   12
ATOM     12  N2  UNL A   1      47.425  23.820  36.260  1.00  0.00    +0.000 N 
ATOM    109  H18 UNL A   1      47.348  23.388  37.142  1.00  0.00    +0.000 H 
BRANCH   12   11
ATOM     11  C9  UNL A   1      47.586  22.912  35.137  1.00  0.00    +0.000 C 
ATOM    108  H17 UNL A   1      48.377  22.233  35.379  1.00  0.00    +0.000 H 
ATOM    107  H16 UNL A   1      47.814  23.485  34.262  1.00  0.00    +0.000 H 
BRANCH   11   10
ATOM    105  H14 UNL A   1      45.671  22.206  35.700  1.00  0.00    +0.000 H 
ATOM     10  C8  UNL A   1      46.331  22.086  34.867  1.00  0.00    +0.000 C 
ATOM    106  H15 UNL A   1      45.928  22.452  33.946  1.00  0.00    +0.000 H 
BRANCH   10    9
ATOM      9  C7  UNL A   1      46.566  20.588  34.661  1.00  0.00    +0.000 C 
ATOM    103  H12 UNL A   1      46.202  20.327  33.689  1.00  0.00    +0.000 H 
ATOM    104  H13 UNL A   1      47.618  20.435  34.780  1.00  0.00    +0.000 H 
BRANCH    9    8
ATOM    101  H10 UNL A   1      44.828  19.786  35.572  1.00  0.00    +0.000 H 
ATOM    102  H11 UNL A   1      46.240  18.685  35.471  1.00  0.00    +0.000 H 
ATOM      8  C6  UNL A   1      45.887  19.673  35.681  1.00  0.00    +0.000 C 
BRANCH    8    7
ATOM     99  H8  UNL A   1      47.282  20.186  37.200  1.00  0.00    +0.000 H 
ATOM    100  H9  UNL A   1      45.601  20.735  37.471  1.00  0.00    +0.000 H 
ATOM      7  C5  UNL A   1      46.242  19.941  37.150  1.00  0.00    +0.000 C 
BRANCH    7    6
ATOM     97  H6  UNL A   1      44.980  18.838  38.475  1.00  0.00    +0.000 H 
ATOM     98  H7  UNL A   1      46.131  17.859  37.568  1.00  0.00    +0.000 H 
ATOM      6  C4  UNL A   1      45.983  18.771  38.107  1.00  0.00    +0.000 C 
BRANCH    6    5
ATOM      5  N1  UNL A   1      46.899  18.787  39.233  1.00  0.00    +0.000 N 
ATOM     96  H5  UNL A   1      47.859  18.678  39.039  1.00  0.00    +0.000 H 
BRANCH    5    3
ATOM      3  C3  UNL A   1      46.528  18.943  40.544  1.00  0.00    +0.000 C 
ATOM      4  O1  UNL A   1      45.850  19.937  40.804  1.00  0.00    +0.000 O 
BRANCH    3    2
ATOM      2  C2  UNL A   1      46.940  17.874  41.574  1.00  0.00    +0.000 C 
ATOM     95  H4  UNL A   1      47.276  18.397  42.446  1.00  0.00    +0.000 H 
BRANCH    2    1
ATOM      1  C1  UNL A   1      48.047  17.027  40.935  1.00  0.00    +0.000 C 
ATOM     92  H1  UNL A   1      49.003  17.431  41.198  1.00  0.00    +0.000 H 
ATOM     93  H2  UNL A   1      47.937  17.039  39.870  1.00  0.00    +0.000 H 
ATOM     94  H3  UNL A   1      47.976  16.019  41.289  1.00  0.00    +0.000 H 
ENDBRANCH    2    1
BRANCH    2   78
ATOM    137  H46 UNL A   1      45.000  15.026  44.763  1.00  0.00    +0.000 H 
ATOM     78  C55 UNL A   1      45.812  16.988  42.132  1.00  0.00    +0.000 C 
ATOM     79  C56 UNL A   1      44.641  16.739  41.392  1.00  0.00    +0.000 C 
ATOM     80  C57 UNL A   1      43.631  15.892  41.855  1.00  0.00    +0.000 C 
ATOM     81  C58 UNL A   1      43.738  15.266  43.094  1.00  0.00    +0.000 C 
ATOM     89  C65 UNL A   1      44.889  15.498  43.852  1.00  0.00    +0.000 C 
ATOM     90  C66 UNL A   1      45.898  16.363  43.395  1.00  0.00    +0.000 C 
ATOM     91 Br1  UNL A   1      47.320  16.675  44.626  1.00  0.00    +0.000 Br
ATOM    124  H33 UNL A   1      44.524  17.198  40.475  1.00  0.00    +0.000 H 
ATOM    125  H34 UNL A   1      42.794  15.729  41.274  1.00  0.00    +0.000 H 
BRANCH   81   82
ATOM     82  C59 UNL A   1      42.624  14.391  43.613  1.00  0.00    +0.000 C 
ATOM    126  H35 UNL A   1      41.715  14.705  43.146  1.00  0.00    +0.000 H 
ATOM    127  H36 UNL A   1      42.631  14.511  44.676  1.00  0.00    +0.000 H 
BRANCH   82   83
ATOM    129  H38 UNL A   1      43.740  12.641  45.280  1.00  0.00    +0.000 H 
ATOM    130  H39 UNL A   1      44.704  12.068  43.972  1.00  0.00    +0.000 H 
ATOM    131  H40 UNL A   1      42.658  10.641  45.493  1.00  0.00    +0.000 H 
ATOM    132  H41 UNL A   1      43.811   9.965  44.410  1.00  0.00    +0.000 H 
ATOM    133  H42 UNL A   1      41.217   9.976  43.763  1.00  0.00    +0.000 H 
ATOM    134  H43 UNL A   1      42.352  10.248  42.524  1.00  0.00    +0.000 H 
ATOM    135  H44 UNL A   1      40.812  12.334  44.135  1.00  0.00    +0.000 H 
ATOM     83  C60 UNL A   1      42.788  12.883  43.361  1.00  0.00    +0.000 C 
ATOM     84  C61 UNL A   1      43.702  12.130  44.341  1.00  0.00    +0.000 C 
ATOM     85  C62 UNL A   1      43.082  10.740  44.516  1.00  0.00    +0.000 C 
ATOM     86  C63 UNL A   1      41.998  10.640  43.454  1.00  0.00    +0.000 C 
ATOM     87  C64 UNL A   1      41.491  12.070  43.351  1.00  0.00    +0.000 C 
ATOM    128  H37 UNL A   1      43.228  12.933  42.388  1.00  0.00    +0.000 H 
BRANCH   87   88
ATOM    136  H45 UNL A   1      41.121  11.717  41.454  1.00  0.00    +0.000 H 
ATOM     88  O3  UNL A   1      40.764  12.284  42.155  1.00  0.00    +0.000 O 
ENDBRANCH   87   88
ENDBRANCH   82   83
ENDBRANCH   81   82
ENDBRANCH    2   78
ENDBRANCH    3    2
ENDBRANCH    5    3
ENDBRANCH    6    5
ENDBRANCH    7    6
ENDBRANCH    8    7
ENDBRANCH    9    8
ENDBRANCH   10    9
ENDBRANCH   11   10
ENDBRANCH   12   11
ENDBRANCH   13   12
ENDBRANCH   15   13
ENDBRANCH   19   18
BRANCH   23   24
ATOM     33  C24 UNL A   1      41.669  25.636  27.432  1.00  0.00    +0.000 C 
ATOM     34  F5  UNL A   1      40.782  25.043  28.246  1.00  0.00    +0.000 F 
ATOM     24  C19 UNL A   1      42.076  26.957  27.671  1.00  0.00    +0.000 C 
ATOM     25  C20 UNL A   1      43.009  27.527  26.791  1.00  0.00    +0.000 C 
ATOM     26  F1  UNL A   1      43.421  28.790  26.972  1.00  0.00    +0.000 F 
ATOM     27  C21 UNL A   1      43.503  26.807  25.707  1.00  0.00    +0.000 C 
ATOM     28  F2  UNL A   1      44.368  27.382  24.860  1.00  0.00    +0.000 F 
ATOM     29  C22 UNL A   1      43.096  25.497  25.496  1.00  0.00    +0.000 C 
ATOM     30  F3  UNL A   1      43.581  24.802  24.459  1.00  0.00    +0.000 F 
ATOM     31  C23 UNL A   1      42.183  24.910  26.360  1.00  0.00    +0.000 C 
ATOM     32  F4  UNL A   1      41.798  23.642  26.166  1.00  0.00    +0.000 F 
ENDBRANCH   23   24
BRANCH   40   41
ATOM     41  C30 UNL A   1      36.753  31.541  29.286  1.00  0.00    +0.000 C 
ATOM     42  C31 UNL A   1      36.749  32.912  28.992  1.00  0.00    +0.000 C 
ATOM     43  F6  UNL A   1      37.783  33.683  29.362  1.00  0.00    +0.000 F 
ATOM     44  C32 UNL A   1      35.661  33.504  28.358  1.00  0.00    +0.000 C 
ATOM     45  F7  UNL A   1      35.657  34.825  28.133  1.00  0.00    +0.000 F 
ATOM     46  C33 UNL A   1      34.573  32.733  27.976  1.00  0.00    +0.000 C 
ATOM     47  F8  UNL A   1      33.527  33.304  27.364  1.00  0.00    +0.000 F 
ATOM     48  C34 UNL A   1      34.566  31.371  28.237  1.00  0.00    +0.000 C 
ATOM     49  F9  UNL A   1      33.520  30.622  27.859  1.00  0.00    +0.000 F 
ATOM     50  C35 UNL A   1      35.641  30.780  28.894  1.00  0.00    +0.000 C 
ATOM     51  F10 UNL A   1      35.598  29.463  29.148  1.00  0.00    +0.000 F 
ENDBRANCH   40   41
BRANCH   55   56
ATOM     65  C44 UNL A   1      38.246  31.357  36.754  1.00  0.00    +0.000 C 
ATOM     66  F15 UNL A   1      37.755  30.122  36.571  1.00  0.00    +0.000 F 
ATOM     56  C39 UNL A   1      39.127  31.908  35.813  1.00  0.00    +0.000 C 
ATOM     57  C40 UNL A   1      39.605  33.205  36.048  1.00  0.00    +0.000 C 
ATOM     58  F11 UNL A   1      40.467  33.765  35.187  1.00  0.00    +0.000 F 
ATOM     59  C41 UNL A   1      39.240  33.911  37.191  1.00  0.00    +0.000 C 
ATOM     60  F12 UNL A   1      39.752  35.128  37.418  1.00  0.00    +0.000 F 
ATOM     61  C42 UNL A   1      38.364  33.347  38.107  1.00  0.00    +0.000 C 
ATOM     62  F13 UNL A   1      38.013  34.025  39.207  1.00  0.00    +0.000 F 
ATOM     63  C43 UNL A   1      37.858  32.074  37.884  1.00  0.00    +0.000 C 
ATOM     64  F14 UNL A   1      37.002  31.531  38.759  1.00  0.00    +0.000 F 
ENDBRANCH   55   56
TORSDOF 20
ENDMDL
MODEL 6
REMARK VINA RESULT:     -11.0     33.012     40.037
ROOT
ATOM     19  C15 UNL A   1      46.436  11.760  47.094  1.00  0.00    +0.000 C 
ATOM     20  C16 UNL A   1      46.639  10.807  48.238  1.00  0.00    +0.000 C 
ATOM     21  N3  UNL A   1      47.473  10.888  49.245  1.00  0.00    +0.000 N 
ATOM     22  C17 UNL A   1      47.234   9.766  50.027  1.00  0.00    +0.000 C 
ATOM     23  C18 UNL A   1      47.880   9.363  51.147  1.00  0.00    +0.000 C 
ATOM     35  C25 UNL A   1      48.977  10.070  51.754  1.00  0.00    +0.000 C 
ATOM     36  C26 UNL A   1      49.725   9.716  52.863  1.00  0.00    +0.000 C 
ATOM     37  C27 UNL A   1      50.665  10.725  53.099  1.00  0.00    +0.000 C 
ATOM     38  C28 UNL A   1      50.528  11.688  52.113  1.00  0.00    +0.000 C 
ATOM     39  N4  UNL A   1      49.486  11.277  51.299  1.00  0.00    +0.000 N 
ATOM     40  C29 UNL A   1      51.291  12.894  51.926  1.00  0.00    +0.000 C 
ATOM     52  C36 UNL A   1      51.098  13.788  50.925  1.00  0.00    +0.000 C 
ATOM     53  N5  UNL A   1      50.168  13.757  49.897  1.00  0.00    +0.000 N 
ATOM     54  C37 UNL A   1      50.362  14.851  49.203  1.00  0.00    +0.000 C 
ATOM     55  C38 UNL A   1      49.657  15.328  47.962  1.00  0.00    +0.000 C 
ATOM     67  C45 UNL A   1      48.690  14.565  47.420  1.00  0.00    +0.000 C 
ATOM     68  C46 UNL A   1      47.935  14.886  46.213  1.00  0.00    +0.000 C 
ATOM     69  C47 UNL A   1      47.038  13.915  45.985  1.00  0.00    +0.000 C 
ATOM     70  C48 UNL A   1      47.173  12.886  47.017  1.00  0.00    +0.000 C 
ATOM     71  N6  UNL A   1      48.177  13.357  47.826  1.00  0.00    +0.000 N 
ATOM     72  C49 UNL A   1      51.428  15.714  49.731  1.00  0.00    +0.000 C 
ATOM     73  C50 UNL A   1      51.872  15.000  50.755  1.00  0.00    +0.000 C 
ATOM     74  C51 UNL A   1      46.146   9.041  49.405  1.00  0.00    +0.000 C 
ATOM     75  C52 UNL A   1      45.778   9.614  48.267  1.00  0.00    +0.000 C 
ATOM    112  H21 UNL A   1      49.610   8.855  53.421  1.00  0.00    +0.000 H 
ATOM    113  H22 UNL A   1      51.345  10.748  53.876  1.00  0.00    +0.000 H 
ATOM    114  H23 UNL A   1      49.155  11.770  50.513  1.00  0.00    +0.000 H 
ATOM    115  H24 UNL A   1      48.071  15.726  45.628  1.00  0.00    +0.000 H 
ATOM    116  H25 UNL A   1      46.360  13.897  45.207  1.00  0.00    +0.000 H 
ATOM    117  H26 UNL A   1      48.501  12.875  48.621  1.00  0.00    +0.000 H 
ATOM    118  H27 UNL A   1      51.748  16.636  49.393  1.00  0.00    +0.000 H 
ATOM    119  H28 UNL A   1      52.667  15.271  51.354  1.00  0.00    +0.000 H 
ATOM    120  H29 UNL A   1      45.712   8.192  49.797  1.00  0.00    +0.000 H 
ATOM    121  H30 UNL A   1      45.074   9.303  47.579  1.00  0.00    +0.000 H 
ENDROOT
BRANCH   19   18
ATOM     76  C53 UNL A   1      45.700  10.748  44.928  1.00  0.00    +0.000 C 
ATOM     77  C54 UNL A   1      44.718  10.482  43.973  1.00  0.00    +0.000 C 
ATOM    110  H19 UNL A   1      42.125  12.013  45.452  1.00  0.00    +0.000 H 
ATOM     15  C11 UNL A   1      43.399  10.891  44.194  1.00  0.00    +0.000 C 
ATOM     16  C12 UNL A   1      43.090  11.672  45.311  1.00  0.00    +0.000 C 
ATOM     17  C13 UNL A   1      44.085  11.989  46.238  1.00  0.00    +0.000 C 
ATOM    111  H20 UNL A   1      43.860  12.585  47.049  1.00  0.00    +0.000 H 
ATOM     18  C14 UNL A   1      45.392  11.501  46.070  1.00  0.00    +0.000 C 
ATOM    122  H31 UNL A   1      46.657  10.387  44.793  1.00  0.00    +0.000 H 
ATOM    123  H32 UNL A   1      44.966   9.984  43.103  1.00  0.00    +0.000 H 
BRANCH   15   13
ATOM     13  C10 UNL A   1      42.312  10.537  43.254  1.00  0.00    +0.000 C 
ATOM     14  O2  UNL A   1      41.570   9.594  43.513  1.00  0.00    +0.000 O 
BRANCH   13   12
ATOM     12  N2  UNL A   1      42.146  11.240  42.088  1.00  0.00    +0.000 N 
ATOM    109  H18 UNL A   1      42.667  10.911  41.320  1.00  0.00    +0.000 H 
BRANCH   12   11
ATOM     11  C9  UNL A   1      41.314  12.401  41.820  1.00  0.00    +0.000 C 
ATOM    108  H17 UNL A   1      41.328  13.020  42.693  1.00  0.00    +0.000 H 
ATOM    107  H16 UNL A   1      40.323  12.067  41.591  1.00  0.00    +0.000 H 
BRANCH   11   10
ATOM    105  H14 UNL A   1      42.763  12.817  40.333  1.00  0.00    +0.000 H 
ATOM     10  C8  UNL A   1      41.831  13.236  40.651  1.00  0.00    +0.000 C 
ATOM    106  H15 UNL A   1      41.068  13.200  39.901  1.00  0.00    +0.000 H 
BRANCH   10    9
ATOM      9  C7  UNL A   1      42.057  14.718  40.955  1.00  0.00    +0.000 C 
ATOM    103  H12 UNL A   1      41.116  15.147  41.225  1.00  0.00    +0.000 H 
ATOM    104  H13 UNL A   1      42.784  14.751  41.740  1.00  0.00    +0.000 H 
BRANCH    9    8
ATOM    101  H10 UNL A   1      42.352  15.073  38.886  1.00  0.00    +0.000 H 
ATOM    102  H11 UNL A   1      42.253  16.530  39.926  1.00  0.00    +0.000 H 
ATOM      8  C6  UNL A   1      42.640  15.540  39.805  1.00  0.00    +0.000 C 
BRANCH    8    7
ATOM     99  H8  UNL A   1      44.574  14.922  40.434  1.00  0.00    +0.000 H 
ATOM    100  H9  UNL A   1      44.473  15.599  38.781  1.00  0.00    +0.000 H 
ATOM      7  C5  UNL A   1      44.168  15.685  39.802  1.00  0.00    +0.000 C 
BRANCH    7    6
ATOM     97  H6  UNL A   1      44.955  17.638  39.446  1.00  0.00    +0.000 H 
ATOM     98  H7  UNL A   1      43.927  17.507  40.871  1.00  0.00    +0.000 H 
ATOM      6  C4  UNL A   1      44.696  17.039  40.293  1.00  0.00    +0.000 C 
BRANCH    6    5
ATOM      5  N1  UNL A   1      45.867  16.883  41.136  1.00  0.00    +0.000 N 
ATOM     96  H5  UNL A   1      46.749  16.986  40.711  1.00  0.00    +0.000 H 
BRANCH    5    3
ATOM      3  C3  UNL A   1      45.836  16.603  42.478  1.00  0.00    +0.000 C 
ATOM      4  O1  UNL A   1      46.492  15.629  42.848  1.00  0.00    +0.000 O 
BRANCH    3    2
ATOM      2  C2  UNL A   1      45.034  17.523  43.419  1.00  0.00    +0.000 C 
ATOM     95  H4  UNL A   1      44.012  17.477  43.101  1.00  0.00    +0.000 H 
BRANCH    2    1
ATOM      1  C1  UNL A   1      45.625  18.933  43.293  1.00  0.00    +0.000 C 
ATOM     92  H1  UNL A   1      44.931  19.566  42.782  1.00  0.00    +0.000 H 
ATOM     93  H2  UNL A   1      46.540  18.888  42.739  1.00  0.00    +0.000 H 
ATOM     94  H3  UNL A   1      45.818  19.328  44.269  1.00  0.00    +0.000 H 
ENDBRANCH    2    1
BRANCH    2   78
ATOM    137  H46 UNL A   1      43.331  14.952  46.959  1.00  0.00    +0.000 H 
ATOM     78  C55 UNL A   1      44.943  17.086  44.892  1.00  0.00    +0.000 C 
ATOM     79  C56 UNL A   1      45.681  17.740  45.897  1.00  0.00    +0.000 C 
ATOM     80  C57 UNL A   1      45.570  17.397  47.247  1.00  0.00    +0.000 C 
ATOM     81  C58 UNL A   1      44.724  16.369  47.654  1.00  0.00    +0.000 C 
ATOM     89  C65 UNL A   1      43.981  15.701  46.677  1.00  0.00    +0.000 C 
ATOM     90  C66 UNL A   1      44.105  16.033  45.317  1.00  0.00    +0.000 C 
ATOM     91 Br1  UNL A   1      43.131  14.918  44.117  1.00  0.00    +0.000 Br
ATOM    124  H33 UNL A   1      46.328  18.497  45.627  1.00  0.00    +0.000 H 
ATOM    125  H34 UNL A   1      46.122  17.911  47.952  1.00  0.00    +0.000 H 
BRANCH   81   82
ATOM     82  C59 UNL A   1      44.643  15.970  49.106  1.00  0.00    +0.000 C 
ATOM    126  H35 UNL A   1      43.691  16.283  49.480  1.00  0.00    +0.000 H 
ATOM    127  H36 UNL A   1      45.475  16.443  49.586  1.00  0.00    +0.000 H 
BRANCH   82   83
ATOM    129  H38 UNL A   1      46.171  14.889  51.000  1.00  0.00    +0.000 H 
ATOM    130  H39 UNL A   1      46.824  13.826  49.811  1.00  0.00    +0.000 H 
ATOM    131  H40 UNL A   1      45.233  13.166  52.170  1.00  0.00    +0.000 H 
ATOM    132  H41 UNL A   1      46.127  12.080  51.180  1.00  0.00    +0.000 H 
ATOM    133  H42 UNL A   1      43.455  11.998  51.181  1.00  0.00    +0.000 H 
ATOM    134  H43 UNL A   1      44.262  11.737  49.705  1.00  0.00    +0.000 H 
ATOM    135  H44 UNL A   1      43.069  14.348  50.743  1.00  0.00    +0.000 H 
ATOM     83  C60 UNL A   1      44.793  14.468  49.395  1.00  0.00    +0.000 C 
ATOM     84  C61 UNL A   1      45.934  14.073  50.348  1.00  0.00    +0.000 C 
ATOM     85  C62 UNL A   1      45.417  12.880  51.157  1.00  0.00    +0.000 C 
ATOM     86  C63 UNL A   1      44.120  12.460  50.482  1.00  0.00    +0.000 C 
ATOM     87  C64 UNL A   1      43.556  13.779  49.979  1.00  0.00    +0.000 C 
ATOM    128  H37 UNL A   1      44.995  14.135  48.399  1.00  0.00    +0.000 H 
BRANCH   87   88
ATOM    136  H45 UNL A   1      42.325  14.438  48.597  1.00  0.00    +0.000 H 
ATOM     88  O3  UNL A   1      42.566  13.583  48.987  1.00  0.00    +0.000 O 
ENDBRANCH   87   88
ENDBRANCH   82   83
ENDBRANCH   81   82
ENDBRANCH    2   78
ENDBRANCH    3    2
ENDBRANCH    5    3
ENDBRANCH    6    5
ENDBRANCH    7    6
ENDBRANCH    8    7
ENDBRANCH    9    8
ENDBRANCH   10    9
ENDBRANCH   11   10
ENDBRANCH   12   11
ENDBRANCH   13   12
ENDBRANCH   15   13
ENDBRANCH   19   18
BRANCH   23   24
ATOM     33  C24 UNL A   1      46.345   8.075  52.681  1.00  0.00    +0.000 C 
ATOM     34  F5  UNL A   1      45.666   9.205  52.933  1.00  0.00    +0.000 F 
ATOM     24  C19 UNL A   1      47.428   8.084  51.788  1.00  0.00    +0.000 C 
ATOM     25  C20 UNL A   1      48.105   6.876  51.564  1.00  0.00    +0.000 C 
ATOM     26  F1  UNL A   1      49.139   6.831  50.712  1.00  0.00    +0.000 F 
ATOM     27  C21 UNL A   1      47.703   5.702  52.196  1.00  0.00    +0.000 C 
ATOM     28  F2  UNL A   1      48.344   4.552  51.941  1.00  0.00    +0.000 F 
ATOM     29  C22 UNL A   1      46.637   5.718  53.084  1.00  0.00    +0.000 C 
ATOM     30  F3  UNL A   1      46.260   4.590  53.700  1.00  0.00    +0.000 F 
ATOM     31  C23 UNL A   1      45.961   6.904  53.330  1.00  0.00    +0.000 C 
ATOM     32  F4  UNL A   1      44.939   6.924  54.196  1.00  0.00    +0.000 F 
ENDBRANCH   23   24
BRANCH   40   41
ATOM     41  C30 UNL A   1      52.397  13.186  52.897  1.00  0.00    +0.000 C 
ATOM     42  C31 UNL A   1      53.693  12.685  52.704  1.00  0.00    +0.000 C 
ATOM     43  F6  UNL A   1      53.960  11.891  51.655  1.00  0.00    +0.000 F 
ATOM     44  C32 UNL A   1      54.708  12.958  53.616  1.00  0.00    +0.000 C 
ATOM     45  F7  UNL A   1      55.925  12.427  53.440  1.00  0.00    +0.000 F 
ATOM     46  C33 UNL A   1      54.457  13.764  54.716  1.00  0.00    +0.000 C 
ATOM     47  F8  UNL A   1      55.436  14.028  55.593  1.00  0.00    +0.000 F 
ATOM     48  C34 UNL A   1      53.188  14.290  54.914  1.00  0.00    +0.000 C 
ATOM     49  F9  UNL A   1      52.947  15.077  55.971  1.00  0.00    +0.000 F 
ATOM     50  C35 UNL A   1      52.164  13.996  54.019  1.00  0.00    +0.000 C 
ATOM     51  F10 UNL A   1      50.943  14.504  54.244  1.00  0.00    +0.000 F 
ENDBRANCH   40   41
BRANCH   55   56
ATOM     65  C44 UNL A   1      51.043  16.680  46.353  1.00  0.00    +0.000 C 
ATOM     66  F15 UNL A   1      51.704  15.569  45.996  1.00  0.00    +0.000 F 
ATOM     56  C39 UNL A   1      50.035  16.616  47.326  1.00  0.00    +0.000 C 
ATOM     57  C40 UNL A   1      49.380  17.807  47.667  1.00  0.00    +0.000 C 
ATOM     58  F11 UNL A   1      48.395  17.791  48.577  1.00  0.00    +0.000 F 
ATOM     59  C41 UNL A   1      49.699  19.009  47.041  1.00  0.00    +0.000 C 
ATOM     60  F12 UNL A   1      49.022  20.123  47.348  1.00  0.00    +0.000 F 
ATOM     61  C42 UNL A   1      50.702  19.050  46.083  1.00  0.00    +0.000 C 
ATOM     62  F13 UNL A   1      51.008  20.206  45.480  1.00  0.00    +0.000 F 
ATOM     63  C43 UNL A   1      51.381  17.888  45.746  1.00  0.00    +0.000 C 
ATOM     64  F14 UNL A   1      52.359  17.926  44.831  1.00  0.00    +0.000 F 
ENDBRANCH   55   56
TORSDOF 20
ENDMDL
MODEL 7
REMARK VINA RESULT:     -10.9     18.613     25.866
ROOT
ATOM     19  C15 UNL A   1      44.661  31.475  28.332  1.00  0.00    +0.000 C 
ATOM     20  C16 UNL A   1      45.398  30.466  27.497  1.00  0.00    +0.000 C 
ATOM     21  N3  UNL A   1      45.043  29.249  27.166  1.00  0.00    +0.000 N 
ATOM     22  C17 UNL A   1      46.067  28.761  26.365  1.00  0.00    +0.000 C 
ATOM     23  C18 UNL A   1      46.199  27.528  25.820  1.00  0.00    +0.000 C 
ATOM     35  C25 UNL A   1      45.249  26.458  25.984  1.00  0.00    +0.000 C 
ATOM     36  C26 UNL A   1      45.319  25.160  25.509  1.00  0.00    +0.000 C 
ATOM     37  C27 UNL A   1      44.151  24.490  25.890  1.00  0.00    +0.000 C 
ATOM     38  C28 UNL A   1      43.372  25.359  26.635  1.00  0.00    +0.000 C 
ATOM     39  N4  UNL A   1      44.054  26.565  26.679  1.00  0.00    +0.000 N 
ATOM     40  C29 UNL A   1      42.100  25.111  27.260  1.00  0.00    +0.000 C 
ATOM     52  C36 UNL A   1      41.400  26.019  27.984  1.00  0.00    +0.000 C 
ATOM     53  N5  UNL A   1      41.723  27.336  28.277  1.00  0.00    +0.000 N 
ATOM     54  C37 UNL A   1      40.722  27.804  28.981  1.00  0.00    +0.000 C 
ATOM     55  C38 UNL A   1      40.543  29.168  29.590  1.00  0.00    +0.000 C 
ATOM     67  C45 UNL A   1      41.519  30.084  29.449  1.00  0.00    +0.000 C 
ATOM     68  C46 UNL A   1      41.495  31.436  29.998  1.00  0.00    +0.000 C 
ATOM     69  C47 UNL A   1      42.618  32.076  29.637  1.00  0.00    +0.000 C 
ATOM     70  C48 UNL A   1      43.456  31.168  28.852  1.00  0.00    +0.000 C 
ATOM     71  N6  UNL A   1      42.723  30.009  28.791  1.00  0.00    +0.000 N 
ATOM     72  C49 UNL A   1      39.636  26.837  29.194  1.00  0.00    +0.000 C 
ATOM     73  C50 UNL A   1      40.118  25.754  28.603  1.00  0.00    +0.000 C 
ATOM     74  C51 UNL A   1      47.035  29.827  26.219  1.00  0.00    +0.000 C 
ATOM     75  C52 UNL A   1      46.695  30.884  26.944  1.00  0.00    +0.000 C 
ATOM    112  H21 UNL A   1      46.099  24.756  24.968  1.00  0.00    +0.000 H 
ATOM    113  H22 UNL A   1      43.911  23.514  25.655  1.00  0.00    +0.000 H 
ATOM    114  H23 UNL A   1      43.737  27.376  27.137  1.00  0.00    +0.000 H 
ATOM    115  H24 UNL A   1      40.737  31.836  30.573  1.00  0.00    +0.000 H 
ATOM    116  H25 UNL A   1      42.853  33.053  29.874  1.00  0.00    +0.000 H 
ATOM    117  H26 UNL A   1      43.029  29.200  28.321  1.00  0.00    +0.000 H 
ATOM    118  H27 UNL A   1      38.733  26.968  29.677  1.00  0.00    +0.000 H 
ATOM    119  H28 UNL A   1      39.642  24.838  28.585  1.00  0.00    +0.000 H 
ATOM    120  H29 UNL A   1      47.877  29.773  25.626  1.00  0.00    +0.000 H 
ATOM    121  H30 UNL A   1      47.208  31.769  27.085  1.00  0.00    +0.000 H 
ENDROOT
BRANCH   19   18
ATOM     76  C53 UNL A   1      46.048  33.081  29.657  1.00  0.00    +0.000 C 
ATOM     77  C54 UNL A   1      46.598  34.348  29.856  1.00  0.00    +0.000 C 
ATOM    110  H19 UNL A   1      45.374  35.879  27.133  1.00  0.00    +0.000 H 
ATOM     15  C11 UNL A   1      46.403  35.352  28.902  1.00  0.00    +0.000 C 
ATOM     16  C12 UNL A   1      45.556  35.124  27.814  1.00  0.00    +0.000 C 
ATOM     17  C13 UNL A   1      44.957  33.874  27.647  1.00  0.00    +0.000 C 
ATOM    111  H20 UNL A   1      44.313  33.715  26.856  1.00  0.00    +0.000 H 
ATOM     18  C14 UNL A   1      45.225  32.831  28.550  1.00  0.00    +0.000 C 
ATOM    122  H31 UNL A   1      46.249  32.324  30.329  1.00  0.00    +0.000 H 
ATOM    123  H32 UNL A   1      47.149  34.543  30.707  1.00  0.00    +0.000 H 
BRANCH   15   13
ATOM     13  C10 UNL A   1      47.056  36.674  29.027  1.00  0.00    +0.000 C 
ATOM     14  O2  UNL A   1      48.178  36.842  28.558  1.00  0.00    +0.000 O 
BRANCH   13   12
ATOM     12  N2  UNL A   1      46.426  37.701  29.683  1.00  0.00    +0.000 N 
ATOM    109  H18 UNL A   1      46.745  37.874  30.599  1.00  0.00    +0.000 H 
BRANCH   12   11
ATOM     11  C9  UNL A   1      45.356  38.571  29.225  1.00  0.00    +0.000 C 
ATOM    108  H17 UNL A   1      45.391  38.594  28.156  1.00  0.00    +0.000 H 
ATOM    107  H16 UNL A   1      45.502  39.545  29.645  1.00  0.00    +0.000 H 
BRANCH   11   10
ATOM    105  H14 UNL A   1      43.358  38.915  29.837  1.00  0.00    +0.000 H 
ATOM     10  C8  UNL A   1      43.974  38.065  29.634  1.00  0.00    +0.000 C 
ATOM    106  H15 UNL A   1      43.624  37.467  28.818  1.00  0.00    +0.000 H 
BRANCH   10    9
ATOM      9  C7  UNL A   1      43.949  37.158  30.865  1.00  0.00    +0.000 C 
ATOM    103  H12 UNL A   1      44.961  36.944  31.140  1.00  0.00    +0.000 H 
ATOM    104  H13 UNL A   1      43.405  37.692  31.616  1.00  0.00    +0.000 H 
BRANCH    9    8
ATOM    101  H10 UNL A   1      42.211  36.039  30.393  1.00  0.00    +0.000 H 
ATOM    102  H11 UNL A   1      43.775  35.286  29.944  1.00  0.00    +0.000 H 
ATOM      8  C6  UNL A   1      43.219  35.826  30.681  1.00  0.00    +0.000 C 
BRANCH    8    7
ATOM     99  H8  UNL A   1      42.651  34.024  31.654  1.00  0.00    +0.000 H 
ATOM    100  H9  UNL A   1      44.191  34.752  32.202  1.00  0.00    +0.000 H 
ATOM      7  C5  UNL A   1      43.174  34.920  31.919  1.00  0.00    +0.000 C 
BRANCH    7    6
ATOM     97  H6  UNL A   1      43.215  36.031  33.743  1.00  0.00    +0.000 H 
ATOM     98  H7  UNL A   1      41.733  36.209  32.806  1.00  0.00    +0.000 H 
ATOM      6  C4  UNL A   1      42.483  35.527  33.147  1.00  0.00    +0.000 C 
BRANCH    6    5
ATOM      5  N1  UNL A   1      41.838  34.509  33.956  1.00  0.00    +0.000 N 
ATOM     96  H5  UNL A   1      42.388  33.748  34.253  1.00  0.00    +0.000 H 
BRANCH    5    3
ATOM      3  C3  UNL A   1      40.520  34.529  34.336  1.00  0.00    +0.000 C 
ATOM      4  O1  UNL A   1      40.067  35.621  34.680  1.00  0.00    +0.000 O 
BRANCH    3    2
ATOM      2  C2  UNL A   1      39.701  33.225  34.274  1.00  0.00    +0.000 C 
ATOM     95  H4  UNL A   1      39.558  32.900  35.285  1.00  0.00    +0.000 H 
BRANCH    2    1
ATOM      1  C1  UNL A   1      40.505  32.218  33.442  1.00  0.00    +0.000 C 
ATOM     92  H1  UNL A   1      40.445  32.482  32.407  1.00  0.00    +0.000 H 
ATOM     93  H2  UNL A   1      40.102  31.237  33.583  1.00  0.00    +0.000 H 
ATOM     94  H3  UNL A   1      41.528  32.233  33.755  1.00  0.00    +0.000 H 
ENDBRANCH    2    1
BRANCH    2   78
ATOM    137  H46 UNL A   1      36.435  34.407  31.114  1.00  0.00    +0.000 H 
ATOM     78  C55 UNL A   1      38.256  33.346  33.758  1.00  0.00    +0.000 C 
ATOM     79  C56 UNL A   1      37.157  32.992  34.564  1.00  0.00    +0.000 C 
ATOM     80  C57 UNL A   1      35.836  33.148  34.136  1.00  0.00    +0.000 C 
ATOM     81  C58 UNL A   1      35.552  33.652  32.870  1.00  0.00    +0.000 C 
ATOM     89  C65 UNL A   1      36.623  34.010  32.047  1.00  0.00    +0.000 C 
ATOM     90  C66 UNL A   1      37.953  33.837  32.469  1.00  0.00    +0.000 C 
ATOM     91 Br1  UNL A   1      39.279  34.237  31.160  1.00  0.00    +0.000 Br
ATOM    124  H33 UNL A   1      37.333  32.602  35.503  1.00  0.00    +0.000 H 
ATOM    125  H34 UNL A   1      35.061  32.886  34.765  1.00  0.00    +0.000 H 
BRANCH   81   82
ATOM     82  C59 UNL A   1      34.126  33.774  32.393  1.00  0.00    +0.000 C 
ATOM    126  H35 UNL A   1      33.516  33.157  33.018  1.00  0.00    +0.000 H 
ATOM    127  H36 UNL A   1      34.137  33.477  31.365  1.00  0.00    +0.000 H 
BRANCH   82   83
ATOM    129  H38 UNL A   1      35.117  35.862  33.715  1.00  0.00    +0.000 H 
ATOM    130  H39 UNL A   1      33.545  36.151  34.359  1.00  0.00    +0.000 H 
ATOM    131  H40 UNL A   1      35.128  37.844  32.579  1.00  0.00    +0.000 H 
ATOM    132  H41 UNL A   1      33.710  38.285  33.448  1.00  0.00    +0.000 H 
ATOM    133  H42 UNL A   1      33.640  38.094  30.782  1.00  0.00    +0.000 H 
ATOM    134  H43 UNL A   1      32.275  37.576  31.658  1.00  0.00    +0.000 H 
ATOM    135  H44 UNL A   1      34.574  35.868  30.602  1.00  0.00    +0.000 H 
ATOM     83  C60 UNL A   1      33.535  35.193  32.412  1.00  0.00    +0.000 C 
ATOM     84  C61 UNL A   1      34.121  36.156  33.458  1.00  0.00    +0.000 C 
ATOM     85  C62 UNL A   1      34.127  37.541  32.803  1.00  0.00    +0.000 C 
ATOM     86  C63 UNL A   1      33.320  37.391  31.523  1.00  0.00    +0.000 C 
ATOM     87  C64 UNL A   1      33.627  35.965  31.092  1.00  0.00    +0.000 C 
ATOM    128  H37 UNL A   1      32.524  34.940  32.649  1.00  0.00    +0.000 H 
BRANCH   87   88
ATOM    136  H45 UNL A   1      33.119  34.872  29.542  1.00  0.00    +0.000 H 
ATOM     88  O3  UNL A   1      32.683  35.485  30.154  1.00  0.00    +0.000 O 
ENDBRANCH   87   88
ENDBRANCH   82   83
ENDBRANCH   81   82
ENDBRANCH    2   78
ENDBRANCH    3    2
ENDBRANCH    5    3
ENDBRANCH    6    5
ENDBRANCH    7    6
ENDBRANCH    8    7
ENDBRANCH    9    8
ENDBRANCH   10    9
ENDBRANCH   11   10
ENDBRANCH   12   11
ENDBRANCH   13   12
ENDBRANCH   15   13
ENDBRANCH   19   18
BRANCH   23   24
ATOM     33  C24 UNL A   1      48.543  26.624  25.578  1.00  0.00    +0.000 C 
ATOM     34  F5  UNL A   1      48.503  26.210  26.854  1.00  0.00    +0.000 F 
ATOM     24  C19 UNL A   1      47.428  27.256  25.005  1.00  0.00    +0.000 C 
ATOM     25  C20 UNL A   1      47.525  27.673  23.668  1.00  0.00    +0.000 C 
ATOM     26  F1  UNL A   1      46.484  28.272  23.072  1.00  0.00    +0.000 F 
ATOM     27  C21 UNL A   1      48.686  27.453  22.932  1.00  0.00    +0.000 C 
ATOM     28  F2  UNL A   1      48.744  27.830  21.647  1.00  0.00    +0.000 F 
ATOM     29  C22 UNL A   1      49.780  26.838  23.523  1.00  0.00    +0.000 C 
ATOM     30  F3  UNL A   1      50.901  26.638  22.816  1.00  0.00    +0.000 F 
ATOM     31  C23 UNL A   1      49.711  26.428  24.846  1.00  0.00    +0.000 C 
ATOM     32  F4  UNL A   1      50.771  25.844  25.422  1.00  0.00    +0.000 F 
ENDBRANCH   23   24
BRANCH   40   41
ATOM     41  C30 UNL A   1      41.503  23.742  27.124  1.00  0.00    +0.000 C 
ATOM     42  C31 UNL A   1      40.336  23.522  26.377  1.00  0.00    +0.000 C 
ATOM     43  F6  UNL A   1      39.704  24.553  25.795  1.00  0.00    +0.000 F 
ATOM     44  C32 UNL A   1      39.789  22.247  26.264  1.00  0.00    +0.000 C 
ATOM     45  F7  UNL A   1      38.646  22.068  25.588  1.00  0.00    +0.000 F 
ATOM     46  C33 UNL A   1      40.415  21.165  26.865  1.00  0.00    +0.000 C 
ATOM     47  F8  UNL A   1      39.888  19.938  26.754  1.00  0.00    +0.000 F 
ATOM     48  C34 UNL A   1      41.582  21.357  27.589  1.00  0.00    +0.000 C 
ATOM     49  F9  UNL A   1      42.194  20.310  28.162  1.00  0.00    +0.000 F 
ATOM     50  C35 UNL A   1      42.117  22.634  27.727  1.00  0.00    +0.000 C 
ATOM     51  F10 UNL A   1      43.238  22.791  28.448  1.00  0.00    +0.000 F 
ENDBRANCH   40   41
BRANCH   55   56
ATOM     65  C44 UNL A   1      39.220  29.224  31.731  1.00  0.00    +0.000 C 
ATOM     66  F15 UNL A   1      40.239  28.631  32.371  1.00  0.00    +0.000 F 
ATOM     56  C39 UNL A   1      39.316  29.497  30.360  1.00  0.00    +0.000 C 
ATOM     57  C40 UNL A   1      38.221  30.112  29.738  1.00  0.00    +0.000 C 
ATOM     58  F11 UNL A   1      38.276  30.413  28.432  1.00  0.00    +0.000 F 
ATOM     59  C41 UNL A   1      37.086  30.465  30.463  1.00  0.00    +0.000 C 
ATOM     60  F12 UNL A   1      36.074  31.098  29.855  1.00  0.00    +0.000 F 
ATOM     61  C42 UNL A   1      37.011  30.181  31.819  1.00  0.00    +0.000 C 
ATOM     62  F13 UNL A   1      35.920  30.521  32.517  1.00  0.00    +0.000 F 
ATOM     63  C43 UNL A   1      38.073  29.552  32.451  1.00  0.00    +0.000 C 
ATOM     64  F14 UNL A   1      37.999  29.264  33.757  1.00  0.00    +0.000 F 
ENDBRANCH   55   56
TORSDOF 20
ENDMDL
MODEL 8
REMARK VINA RESULT:     -10.9     27.813     33.740
ROOT
ATOM     19  C15 UNL A   1      46.581  50.957  18.027  1.00  0.00    +0.000 C 
ATOM     20  C16 UNL A   1      47.595  50.592  19.074  1.00  0.00    +0.000 C 
ATOM     21  N3  UNL A   1      48.654  51.257  19.467  1.00  0.00    +0.000 N 
ATOM     22  C17 UNL A   1      49.228  50.494  20.474  1.00  0.00    +0.000 C 
ATOM     23  C18 UNL A   1      50.375  50.723  21.159  1.00  0.00    +0.000 C 
ATOM     35  C25 UNL A   1      51.234  51.859  20.953  1.00  0.00    +0.000 C 
ATOM     36  C26 UNL A   1      52.440  52.154  21.565  1.00  0.00    +0.000 C 
ATOM     37  C27 UNL A   1      52.898  53.378  21.068  1.00  0.00    +0.000 C 
ATOM     38  C28 UNL A   1      51.997  53.828  20.117  1.00  0.00    +0.000 C 
ATOM     39  N4  UNL A   1      50.978  52.890  20.061  1.00  0.00    +0.000 N 
ATOM     40  C29 UNL A   1      52.059  55.022  19.318  1.00  0.00    +0.000 C 
ATOM     52  C36 UNL A   1      51.134  55.390  18.397  1.00  0.00    +0.000 C 
ATOM     53  N5  UNL A   1      49.967  54.738  18.026  1.00  0.00    +0.000 N 
ATOM     54  C37 UNL A   1      49.403  55.498  17.120  1.00  0.00    +0.000 C 
ATOM     55  C38 UNL A   1      48.130  55.275  16.349  1.00  0.00    +0.000 C 
ATOM     67  C45 UNL A   1      47.426  54.146  16.555  1.00  0.00    +0.000 C 
ATOM     68  C46 UNL A   1      46.189  53.784  15.871  1.00  0.00    +0.000 C 
ATOM     69  C47 UNL A   1      45.753  52.606  16.345  1.00  0.00    +0.000 C 
ATOM     70  C48 UNL A   1      46.699  52.115  17.349  1.00  0.00    +0.000 C 
ATOM     71  N6  UNL A   1      47.659  53.094  17.408  1.00  0.00    +0.000 N 
ATOM     72  C49 UNL A   1      50.142  56.735  16.831  1.00  0.00    +0.000 C 
ATOM     73  C50 UNL A   1      51.209  56.599  17.604  1.00  0.00    +0.000 C 
ATOM     74  C51 UNL A   1      48.378  49.338  20.667  1.00  0.00    +0.000 C 
ATOM     75  C52 UNL A   1      47.384  49.324  19.789  1.00  0.00    +0.000 C 
ATOM    112  H21 UNL A   1      52.919  51.569  22.269  1.00  0.00    +0.000 H 
ATOM    113  H22 UNL A   1      53.760  53.864  21.360  1.00  0.00    +0.000 H 
ATOM    114  H23 UNL A   1      50.190  52.947  19.474  1.00  0.00    +0.000 H 
ATOM    115  H24 UNL A   1      45.723  54.344  15.139  1.00  0.00    +0.000 H 
ATOM    116  H25 UNL A   1      44.890  52.124  16.050  1.00  0.00    +0.000 H 
ATOM    117  H26 UNL A   1      48.441  53.048  18.004  1.00  0.00    +0.000 H 
ATOM    118  H27 UNL A   1      49.894  57.508  16.193  1.00  0.00    +0.000 H 
ATOM    119  H28 UNL A   1      51.993  57.269  17.638  1.00  0.00    +0.000 H 
ATOM    120  H29 UNL A   1      48.524  48.621  21.394  1.00  0.00    +0.000 H 
ATOM    121  H30 UNL A   1      46.654  48.609  19.644  1.00  0.00    +0.000 H 
ENDROOT
BRANCH   19   18
ATOM     76  C53 UNL A   1      44.211  50.277  18.453  1.00  0.00    +0.000 C 
ATOM     77  C54 UNL A   1      43.106  49.464  18.196  1.00  0.00    +0.000 C 
ATOM    110  H19 UNL A   1      44.434  47.522  15.805  1.00  0.00    +0.000 H 
ATOM     15  C11 UNL A   1      43.168  48.499  17.186  1.00  0.00    +0.000 C 
ATOM     16  C12 UNL A   1      44.374  48.265  16.519  1.00  0.00    +0.000 C 
ATOM     17  C13 UNL A   1      45.498  49.039  16.818  1.00  0.00    +0.000 C 
ATOM    111  H20 UNL A   1      46.393  48.848  16.342  1.00  0.00    +0.000 H 
ATOM     18  C14 UNL A   1      45.415  50.074  17.765  1.00  0.00    +0.000 C 
ATOM    122  H31 UNL A   1      44.140  51.032  19.153  1.00  0.00    +0.000 H 
ATOM    123  H32 UNL A   1      42.243  49.576  18.751  1.00  0.00    +0.000 H 
BRANCH   15   13
ATOM     13  C10 UNL A   1      41.985  47.691  16.815  1.00  0.00    +0.000 C 
ATOM     14  O2  UNL A   1      40.861  48.107  17.079  1.00  0.00    +0.000 O 
BRANCH   13   12
ATOM     12  N2  UNL A   1      42.140  46.474  16.202  1.00  0.00    +0.000 N 
ATOM    109  H18 UNL A   1      42.289  46.508  15.229  1.00  0.00    +0.000 H 
BRANCH   12   11
ATOM     11  C9  UNL A   1      42.117  45.140  16.779  1.00  0.00    +0.000 C 
ATOM    108  H17 UNL A   1      41.689  44.480  16.054  1.00  0.00    +0.000 H 
ATOM    107  H16 UNL A   1      41.537  45.165  17.679  1.00  0.00    +0.000 H 
BRANCH   11   10
ATOM    105  H14 UNL A   1      43.828  43.982  16.313  1.00  0.00    +0.000 H 
ATOM     10  C8  UNL A   1      43.514  44.621  17.111  1.00  0.00    +0.000 C 
ATOM    106  H15 UNL A   1      44.130  45.488  17.232  1.00  0.00    +0.000 H 
BRANCH   10    9
ATOM      9  C7  UNL A   1      43.625  43.835  18.419  1.00  0.00    +0.000 C 
ATOM    103  H12 UNL A   1      44.245  42.982  18.240  1.00  0.00    +0.000 H 
ATOM    104  H13 UNL A   1      44.030  44.515  19.139  1.00  0.00    +0.000 H 
BRANCH    9    8
ATOM    101  H10 UNL A   1      41.724  44.200  19.282  1.00  0.00    +0.000 H 
ATOM    102  H11 UNL A   1      41.844  42.750  18.234  1.00  0.00    +0.000 H 
ATOM      8  C6  UNL A   1      42.300  43.343  19.000  1.00  0.00    +0.000 C 
BRANCH    8    7
ATOM     99  H8  UNL A   1      41.833  41.548  20.038  1.00  0.00    +0.000 H 
ATOM    100  H9  UNL A   1      43.457  42.229  20.354  1.00  0.00    +0.000 H 
ATOM      7  C5  UNL A   1      42.414  42.426  20.226  1.00  0.00    +0.000 C 
BRANCH    7    6
ATOM     97  H6  UNL A   1      41.033  43.592  21.365  1.00  0.00    +0.000 H 
ATOM     98  H7  UNL A   1      41.757  42.245  22.241  1.00  0.00    +0.000 H 
ATOM      6  C4  UNL A   1      41.931  43.040  21.547  1.00  0.00    +0.000 C 
BRANCH    6    5
ATOM      5  N1  UNL A   1      42.924  43.932  22.117  1.00  0.00    +0.000 N 
ATOM     96  H5  UNL A   1      42.858  44.889  21.892  1.00  0.00    +0.000 H 
BRANCH    5    3
ATOM      3  C3  UNL A   1      43.946  43.541  22.943  1.00  0.00    +0.000 C 
ATOM      4  O1  UNL A   1      43.715  42.584  23.682  1.00  0.00    +0.000 O 
BRANCH    3    2
ATOM      2  C2  UNL A   1      45.295  44.282  22.872  1.00  0.00    +0.000 C 
ATOM     95  H4  UNL A   1      46.044  43.595  23.210  1.00  0.00    +0.000 H 
BRANCH    2    1
ATOM      1  C1  UNL A   1      45.186  45.520  23.770  1.00  0.00    +0.000 C 
ATOM     92  H1  UNL A   1      45.481  45.266  24.766  1.00  0.00    +0.000 H 
ATOM     93  H2  UNL A   1      44.173  45.868  23.776  1.00  0.00    +0.000 H 
ATOM     94  H3  UNL A   1      45.825  46.292  23.394  1.00  0.00    +0.000 H 
ENDBRANCH    2    1
BRANCH    2   78
ATOM    137  H46 UNL A   1      47.688  43.512  18.905  1.00  0.00    +0.000 H 
ATOM     78  C55 UNL A   1      45.800  44.655  21.466  1.00  0.00    +0.000 C 
ATOM     79  C56 UNL A   1      45.525  45.915  20.899  1.00  0.00    +0.000 C 
ATOM     80  C57 UNL A   1      46.021  46.295  19.650  1.00  0.00    +0.000 C 
ATOM     81  C58 UNL A   1      46.804  45.423  18.899  1.00  0.00    +0.000 C 
ATOM     89  C65 UNL A   1      47.090  44.165  19.435  1.00  0.00    +0.000 C 
ATOM     90  C66 UNL A   1      46.577  43.774  20.684  1.00  0.00    +0.000 C 
ATOM     91 Br1  UNL A   1      46.946  41.973  21.186  1.00  0.00    +0.000 Br
ATOM    124  H33 UNL A   1      44.936  46.579  21.425  1.00  0.00    +0.000 H 
ATOM    125  H34 UNL A   1      45.805  47.233  19.279  1.00  0.00    +0.000 H 
BRANCH   81   82
ATOM     82  C59 UNL A   1      47.298  45.819  17.529  1.00  0.00    +0.000 C 
ATOM    126  H35 UNL A   1      46.473  46.235  16.990  1.00  0.00    +0.000 H 
ATOM    127  H36 UNL A   1      47.697  44.926  17.094  1.00  0.00    +0.000 H 
BRANCH   82   83
ATOM    129  H38 UNL A   1      49.625  45.593  18.803  1.00  0.00    +0.000 H 
ATOM    130  H39 UNL A   1      49.395  47.184  19.424  1.00  0.00    +0.000 H 
ATOM    131  H40 UNL A   1      51.473  46.213  17.614  1.00  0.00    +0.000 H 
ATOM    132  H41 UNL A   1      51.443  47.713  18.457  1.00  0.00    +0.000 H 
ATOM    133  H42 UNL A   1      51.180  47.668  15.796  1.00  0.00    +0.000 H 
ATOM    134  H43 UNL A   1      50.262  48.803  16.672  1.00  0.00    +0.000 H 
ATOM    135  H44 UNL A   1      49.381  46.052  15.687  1.00  0.00    +0.000 H 
ATOM     83  C60 UNL A   1      48.444  46.844  17.503  1.00  0.00    +0.000 C 
ATOM     84  C61 UNL A   1      49.569  46.626  18.528  1.00  0.00    +0.000 C 
ATOM     85  C62 UNL A   1      50.863  47.063  17.836  1.00  0.00    +0.000 C 
ATOM     86  C63 UNL A   1      50.428  47.753  16.553  1.00  0.00    +0.000 C 
ATOM     87  C64 UNL A   1      49.173  46.986  16.165  1.00  0.00    +0.000 C 
ATOM    128  H37 UNL A   1      47.877  47.720  17.737  1.00  0.00    +0.000 H 
BRANCH   87   88
ATOM    136  H45 UNL A   1      48.104  47.105  14.521  1.00  0.00    +0.000 H 
ATOM     88  O3  UNL A   1      48.388  47.703  15.230  1.00  0.00    +0.000 O 
ENDBRANCH   87   88
ENDBRANCH   82   83
ENDBRANCH   81   82
ENDBRANCH    2   78
ENDBRANCH    3    2
ENDBRANCH    5    3
ENDBRANCH    6    5
ENDBRANCH    7    6
ENDBRANCH    8    7
ENDBRANCH    9    8
ENDBRANCH   10    9
ENDBRANCH   11   10
ENDBRANCH   12   11
ENDBRANCH   13   12
ENDBRANCH   15   13
ENDBRANCH   19   18
BRANCH   23   24
ATOM     33  C24 UNL A   1      50.375  49.853  23.528  1.00  0.00    +0.000 C 
ATOM     34  F5  UNL A   1      49.575  50.868  23.889  1.00  0.00    +0.000 F 
ATOM     24  C19 UNL A   1      50.781  49.714  22.192  1.00  0.00    +0.000 C 
ATOM     25  C20 UNL A   1      51.622  48.637  21.870  1.00  0.00    +0.000 C 
ATOM     26  F1  UNL A   1      52.028  48.454  20.605  1.00  0.00    +0.000 F 
ATOM     27  C21 UNL A   1      52.027  47.729  22.844  1.00  0.00    +0.000 C 
ATOM     28  F2  UNL A   1      52.803  46.689  22.507  1.00  0.00    +0.000 F 
ATOM     29  C22 UNL A   1      51.624  47.894  24.161  1.00  0.00    +0.000 C 
ATOM     30  F3  UNL A   1      52.025  47.025  25.100  1.00  0.00    +0.000 F 
ATOM     31  C23 UNL A   1      50.803  48.957  24.504  1.00  0.00    +0.000 C 
ATOM     32  F4  UNL A   1      50.422  49.125  25.778  1.00  0.00    +0.000 F 
ENDBRANCH   23   24
BRANCH   40   41
ATOM     41  C30 UNL A   1      53.240  55.929  19.496  1.00  0.00    +0.000 C 
ATOM     42  C31 UNL A   1      54.408  55.770  18.735  1.00  0.00    +0.000 C 
ATOM     43  F6  UNL A   1      54.505  54.766  17.850  1.00  0.00    +0.000 F 
ATOM     44  C32 UNL A   1      55.499  56.615  18.916  1.00  0.00    +0.000 C 
ATOM     45  F7  UNL A   1      56.623  56.414  18.215  1.00  0.00    +0.000 F 
ATOM     46  C33 UNL A   1      55.432  57.653  19.833  1.00  0.00    +0.000 C 
ATOM     47  F8  UNL A   1      56.483  58.467  20.005  1.00  0.00    +0.000 F 
ATOM     48  C34 UNL A   1      54.278  57.843  20.580  1.00  0.00    +0.000 C 
ATOM     49  F9  UNL A   1      54.208  58.852  21.459  1.00  0.00    +0.000 F 
ATOM     50  C35 UNL A   1      53.195  56.983  20.421  1.00  0.00    +0.000 C 
ATOM     51  F10 UNL A   1      52.099  57.180  21.169  1.00  0.00    +0.000 F 
ENDBRANCH   40   41
BRANCH   55   56
ATOM     65  C44 UNL A   1      46.957  57.421  15.753  1.00  0.00    +0.000 C 
ATOM     66  F15 UNL A   1      46.673  57.620  17.048  1.00  0.00    +0.000 F 
ATOM     56  C39 UNL A   1      47.661  56.275  15.357  1.00  0.00    +0.000 C 
ATOM     57  C40 UNL A   1      47.927  56.111  13.990  1.00  0.00    +0.000 C 
ATOM     58  F11 UNL A   1      48.616  55.042  13.566  1.00  0.00    +0.000 F 
ATOM     59  C41 UNL A   1      47.529  57.068  13.060  1.00  0.00    +0.000 C 
ATOM     60  F12 UNL A   1      47.841  56.913  11.766  1.00  0.00    +0.000 F 
ATOM     61  C42 UNL A   1      46.831  58.192  13.474  1.00  0.00    +0.000 C 
ATOM     62  F13 UNL A   1      46.450  59.114  12.580  1.00  0.00    +0.000 F 
ATOM     63  C43 UNL A   1      46.536  58.364  14.819  1.00  0.00    +0.000 C 
ATOM     64  F14 UNL A   1      45.850  59.443  15.221  1.00  0.00    +0.000 F 
ENDBRANCH   55   56
TORSDOF 20
ENDMDL
MODEL 9
REMARK VINA RESULT:     -10.8     44.528     52.618
ROOT
ATOM     19  C15 UNL A   1      24.115  39.508  47.549  1.00  0.00    +0.000 C 
ATOM     20  C16 UNL A   1      23.481  38.174  47.276  1.00  0.00    +0.000 C 
ATOM     21  N3  UNL A   1      22.279  37.751  47.583  1.00  0.00    +0.000 N 
ATOM     22  C17 UNL A   1      22.191  36.460  47.078  1.00  0.00    +0.000 C 
ATOM     23  C18 UNL A   1      21.170  35.577  47.189  1.00  0.00    +0.000 C 
ATOM     35  C25 UNL A   1      19.935  35.841  47.880  1.00  0.00    +0.000 C 
ATOM     36  C26 UNL A   1      18.861  34.993  48.086  1.00  0.00    +0.000 C 
ATOM     37  C27 UNL A   1      17.873  35.696  48.783  1.00  0.00    +0.000 C 
ATOM     38  C28 UNL A   1      18.348  36.971  49.047  1.00  0.00    +0.000 C 
ATOM     39  N4  UNL A   1      19.611  37.048  48.482  1.00  0.00    +0.000 N 
ATOM     40  C29 UNL A   1      17.700  38.039  49.761  1.00  0.00    +0.000 C 
ATOM     52  C36 UNL A   1      18.239  39.263  49.983  1.00  0.00    +0.000 C 
ATOM     53  N5  UNL A   1      19.477  39.754  49.596  1.00  0.00    +0.000 N 
ATOM     54  C37 UNL A   1      19.523  40.991  50.024  1.00  0.00    +0.000 C 
ATOM     55  C38 UNL A   1      20.637  41.996  49.910  1.00  0.00    +0.000 C 
ATOM     67  C45 UNL A   1      21.788  41.638  49.310  1.00  0.00    +0.000 C 
ATOM     68  C46 UNL A   1      22.957  42.494  49.143  1.00  0.00    +0.000 C 
ATOM     69  C47 UNL A   1      23.906  41.817  48.478  1.00  0.00    +0.000 C 
ATOM     70  C48 UNL A   1      23.420  40.465  48.196  1.00  0.00    +0.000 C 
ATOM     71  N6  UNL A   1      22.154  40.449  48.726  1.00  0.00    +0.000 N 
ATOM     72  C49 UNL A   1      18.303  41.432  50.715  1.00  0.00    +0.000 C 
ATOM     73  C50 UNL A   1      17.570  40.329  50.700  1.00  0.00    +0.000 C 
ATOM     74  C51 UNL A   1      23.442  36.185  46.403  1.00  0.00    +0.000 C 
ATOM     75  C52 UNL A   1      24.293  37.191  46.542  1.00  0.00    +0.000 C 
ATOM    112  H21 UNL A   1      18.800  34.010  47.777  1.00  0.00    +0.000 H 
ATOM    113  H22 UNL A   1      16.948  35.328  49.055  1.00  0.00    +0.000 H 
ATOM    114  H23 UNL A   1      20.192  37.842  48.505  1.00  0.00    +0.000 H 
ATOM    115  H24 UNL A   1      23.041  43.466  49.482  1.00  0.00    +0.000 H 
ATOM    116  H25 UNL A   1      24.829  42.189  48.207  1.00  0.00    +0.000 H 
ATOM    117  H26 UNL A   1      21.565  39.662  48.692  1.00  0.00    +0.000 H 
ATOM    118  H27 UNL A   1      18.076  42.359  51.108  1.00  0.00    +0.000 H 
ATOM    119  H28 UNL A   1      16.642  40.239  51.142  1.00  0.00    +0.000 H 
ATOM    120  H29 UNL A   1      23.643  35.319  45.879  1.00  0.00    +0.000 H 
ATOM    121  H30 UNL A   1      25.271  37.265  46.222  1.00  0.00    +0.000 H 
ENDROOT
BRANCH   19   18
ATOM     76  C53 UNL A   1      26.599  39.444  47.845  1.00  0.00    +0.000 C 
ATOM     77  C54 UNL A   1      27.892  39.700  47.389  1.00  0.00    +0.000 C 
ATOM    110  H19 UNL A   1      27.136  41.069  44.421  1.00  0.00    +0.000 H 
ATOM     15  C11 UNL A   1      28.090  40.237  46.113  1.00  0.00    +0.000 C 
ATOM     16  C12 UNL A   1      26.991  40.631  45.345  1.00  0.00    +0.000 C 
ATOM     17  C13 UNL A   1      25.695  40.430  45.827  1.00  0.00    +0.000 C 
ATOM    111  H20 UNL A   1      24.886  40.743  45.269  1.00  0.00    +0.000 H 
ATOM     18  C14 UNL A   1      25.489  39.804  47.068  1.00  0.00    +0.000 C 
ATOM    122  H31 UNL A   1      26.459  38.987  48.760  1.00  0.00    +0.000 H 
ATOM    123  H32 UNL A   1      28.703  39.493  47.994  1.00  0.00    +0.000 H 
BRANCH   15   13
ATOM     13  C10 UNL A   1      29.448  40.425  45.555  1.00  0.00    +0.000 C 
ATOM     14  O2  UNL A   1      30.044  41.479  45.755  1.00  0.00    +0.000 O 
BRANCH   13   12
ATOM     12  N2  UNL A   1      30.030  39.439  44.800  1.00  0.00    +0.000 N 
ATOM    109  H18 UNL A   1      30.954  39.621  44.510  1.00  0.00    +0.000 H 
BRANCH   12   11
ATOM     11  C9  UNL A   1      29.483  38.165  44.363  1.00  0.00    +0.000 C 
ATOM    108  H17 UNL A   1      28.719  38.369  43.643  1.00  0.00    +0.000 H 
ATOM    107  H16 UNL A   1      29.093  37.649  45.217  1.00  0.00    +0.000 H 
BRANCH   11   10
ATOM    105  H14 UNL A   1      31.118  37.893  43.044  1.00  0.00    +0.000 H 
ATOM     10  C8  UNL A   1      30.529  37.278  43.692  1.00  0.00    +0.000 C 
ATOM    106  H15 UNL A   1      31.092  36.831  44.486  1.00  0.00    +0.000 H 
BRANCH   10    9
ATOM      9  C7  UNL A   1      29.970  36.119  42.864  1.00  0.00    +0.000 C 
ATOM    103  H12 UNL A   1      29.224  36.513  42.206  1.00  0.00    +0.000 H 
ATOM    104  H13 UNL A   1      30.806  35.688  42.356  1.00  0.00    +0.000 H 
BRANCH    9    8
ATOM    101  H10 UNL A   1      29.959  34.123  43.576  1.00  0.00    +0.000 H 
ATOM    102  H11 UNL A   1      29.253  35.350  44.675  1.00  0.00    +0.000 H 
ATOM      8  C6  UNL A   1      29.335  34.986  43.672  1.00  0.00    +0.000 C 
BRANCH    8    7
ATOM     99  H8  UNL A   1      27.710  35.042  42.303  1.00  0.00    +0.000 H 
ATOM    100  H9  UNL A   1      27.896  33.522  43.228  1.00  0.00    +0.000 H 
ATOM      7  C5  UNL A   1      27.912  34.590  43.252  1.00  0.00    +0.000 C 
BRANCH    7    6
ATOM     97  H6  UNL A   1      27.228  35.635  44.985  1.00  0.00    +0.000 H 
ATOM     98  H7  UNL A   1      26.058  35.543  43.671  1.00  0.00    +0.000 H 
ATOM      6  C4  UNL A   1      26.804  35.013  44.225  1.00  0.00    +0.000 C 
BRANCH    6    5
ATOM      5  N1  UNL A   1      26.175  33.865  44.851  1.00  0.00    +0.000 N 
ATOM     96  H5  UNL A   1      25.269  33.623  44.552  1.00  0.00    +0.000 H 
BRANCH    5    3
ATOM      3  C3  UNL A   1      26.749  33.094  45.829  1.00  0.00    +0.000 C 
ATOM      4  O1  UNL A   1      26.515  31.886  45.779  1.00  0.00    +0.000 O 
BRANCH    3    2
ATOM      2  C2  UNL A   1      27.657  33.763  46.879  1.00  0.00    +0.000 C 
ATOM     95  H4  UNL A   1      28.240  34.498  46.362  1.00  0.00    +0.000 H 
BRANCH    2    1
ATOM      1  C1  UNL A   1      28.522  32.661  47.504  1.00  0.00    +0.000 C 
ATOM     92  H1  UNL A   1      27.894  31.964  48.019  1.00  0.00    +0.000 H 
ATOM     93  H2  UNL A   1      29.211  33.099  48.197  1.00  0.00    +0.000 H 
ATOM     94  H3  UNL A   1      29.064  32.152  46.735  1.00  0.00    +0.000 H 
ENDBRANCH    2    1
BRANCH    2   78
ATOM    137  H46 UNL A   1      27.440  37.181  50.091  1.00  0.00    +0.000 H 
ATOM     78  C55 UNL A   1      26.953  34.601  47.961  1.00  0.00    +0.000 C 
ATOM     79  C56 UNL A   1      25.651  34.291  48.397  1.00  0.00    +0.000 C 
ATOM     80  C57 UNL A   1      25.015  35.002  49.418  1.00  0.00    +0.000 C 
ATOM     81  C58 UNL A   1      25.650  36.073  50.041  1.00  0.00    +0.000 C 
ATOM     89  C65 UNL A   1      26.942  36.405  49.627  1.00  0.00    +0.000 C 
ATOM     90  C66 UNL A   1      27.576  35.702  48.588  1.00  0.00    +0.000 C 
ATOM     91 Br1  UNL A   1      29.272  36.390  48.057  1.00  0.00    +0.000 Br
ATOM    124  H33 UNL A   1      25.147  33.511  47.946  1.00  0.00    +0.000 H 
ATOM    125  H34 UNL A   1      24.065  34.732  49.714  1.00  0.00    +0.000 H 
BRANCH   81   82
ATOM     82  C59 UNL A   1      24.943  36.869  51.110  1.00  0.00    +0.000 C 
ATOM    126  H35 UNL A   1      25.421  37.823  51.179  1.00  0.00    +0.000 H 
ATOM    127  H36 UNL A   1      25.010  36.283  52.002  1.00  0.00    +0.000 H 
BRANCH   82   83
ATOM    129  H38 UNL A   1      23.018  35.044  51.330  1.00  0.00    +0.000 H 
ATOM    130  H39 UNL A   1      22.432  35.532  49.785  1.00  0.00    +0.000 H 
ATOM    131  H40 UNL A   1      21.111  35.731  52.383  1.00  0.00    +0.000 H 
ATOM    132  H41 UNL A   1      20.395  35.936  50.832  1.00  0.00    +0.000 H 
ATOM    133  H42 UNL A   1      20.666  38.034  52.467  1.00  0.00    +0.000 H 
ATOM    134  H43 UNL A   1      20.903  38.284  50.800  1.00  0.00    +0.000 H 
ATOM    135  H44 UNL A   1      23.027  37.768  52.929  1.00  0.00    +0.000 H 
ATOM     83  C60 UNL A   1      23.442  37.109  50.880  1.00  0.00    +0.000 C 
ATOM     84  C61 UNL A   1      22.561  35.852  50.796  1.00  0.00    +0.000 C 
ATOM     85  C62 UNL A   1      21.224  36.227  51.442  1.00  0.00    +0.000 C 
ATOM     86  C63 UNL A   1      21.274  37.734  51.639  1.00  0.00    +0.000 C 
ATOM     87  C64 UNL A   1      22.747  37.991  51.921  1.00  0.00    +0.000 C 
ATOM    128  H37 UNL A   1      23.504  37.597  49.930  1.00  0.00    +0.000 H 
BRANCH   87   88
ATOM    136  H45 UNL A   1      23.583  39.666  52.515  1.00  0.00    +0.000 H 
ATOM     88  O3  UNL A   1      23.085  39.354  51.744  1.00  0.00    +0.000 O 
ENDBRANCH   87   88
ENDBRANCH   82   83
ENDBRANCH   81   82
ENDBRANCH    2   78
ENDBRANCH    3    2
ENDBRANCH    5    3
ENDBRANCH    6    5
ENDBRANCH    7    6
ENDBRANCH    8    7
ENDBRANCH    9    8
ENDBRANCH   10    9
ENDBRANCH   11   10
ENDBRANCH   12   11
ENDBRANCH   13   12
ENDBRANCH   15   13
ENDBRANCH   19   18
BRANCH   23   24
ATOM     33  C24 UNL A   1      20.875  33.974  45.263  1.00  0.00    +0.000 C 
ATOM     34  F5  UNL A   1      20.302  34.954  44.548  1.00  0.00    +0.000 F 
ATOM     24  C19 UNL A   1      21.348  34.227  46.560  1.00  0.00    +0.000 C 
ATOM     25  C20 UNL A   1      21.935  33.164  47.264  1.00  0.00    +0.000 C 
ATOM     26  F1  UNL A   1      22.411  33.359  48.503  1.00  0.00    +0.000 F 
ATOM     27  C21 UNL A   1      22.057  31.903  46.687  1.00  0.00    +0.000 C 
ATOM     28  F2  UNL A   1      22.652  30.913  47.366  1.00  0.00    +0.000 F 
ATOM     29  C22 UNL A   1      21.572  31.673  45.408  1.00  0.00    +0.000 C 
ATOM     30  F3  UNL A   1      21.681  30.455  44.859  1.00  0.00    +0.000 F 
ATOM     31  C23 UNL A   1      20.978  32.705  44.698  1.00  0.00    +0.000 C 
ATOM     32  F4  UNL A   1      20.498  32.481  43.467  1.00  0.00    +0.000 F 
ENDBRANCH   23   24
BRANCH   40   41
ATOM     41  C30 UNL A   1      16.332  37.784  50.320  1.00  0.00    +0.000 C 
ATOM     42  C31 UNL A   1      16.123  37.604  51.695  1.00  0.00    +0.000 C 
ATOM     43  F6  UNL A   1      17.164  37.618  52.542  1.00  0.00    +0.000 F 
ATOM     44  C32 UNL A   1      14.849  37.362  52.200  1.00  0.00    +0.000 C 
ATOM     45  F7  UNL A   1      14.680  37.143  53.511  1.00  0.00    +0.000 F 
ATOM     46  C33 UNL A   1      13.757  37.330  51.346  1.00  0.00    +0.000 C 
ATOM     47  F8  UNL A   1      12.530  37.099  51.832  1.00  0.00    +0.000 F 
ATOM     48  C34 UNL A   1      13.937  37.528  49.984  1.00  0.00    +0.000 C 
ATOM     49  F9  UNL A   1      12.881  37.507  49.159  1.00  0.00    +0.000 F 
ATOM     50  C35 UNL A   1      15.213  37.743  49.474  1.00  0.00    +0.000 C 
ATOM     51  F10 UNL A   1      15.359  37.914  48.151  1.00  0.00    +0.000 F 
ENDBRANCH   40   41
BRANCH   55   56
ATOM     65  C44 UNL A   1      19.985  44.417  49.692  1.00  0.00    +0.000 C 
ATOM     66  F15 UNL A   1      19.659  44.209  48.408  1.00  0.00    +0.000 F 
ATOM     56  C39 UNL A   1      20.483  43.363  50.470  1.00  0.00    +0.000 C 
ATOM     57  C40 UNL A   1      20.814  43.635  51.804  1.00  0.00    +0.000 C 
ATOM     58  F11 UNL A   1      21.274  42.653  52.593  1.00  0.00    +0.000 F 
ATOM     59  C41 UNL A   1      20.630  44.904  52.347  1.00  0.00    +0.000 C 
ATOM     60  F12 UNL A   1      20.906  45.125  53.640  1.00  0.00    +0.000 F 
ATOM     61  C42 UNL A   1      20.139  45.934  51.558  1.00  0.00    +0.000 C 
ATOM     62  F13 UNL A   1      19.959  47.154  52.081  1.00  0.00    +0.000 F 
ATOM     63  C43 UNL A   1      19.826  45.694  50.228  1.00  0.00    +0.000 C 
ATOM     64  F14 UNL A   1      19.364  46.689  49.459  1.00  0.00    +0.000 F 
ENDBRANCH   55   56
TORSDOF 20
ENDMDL
MODEL 10
REMARK VINA RESULT:     -10.8     27.563     33.448
ROOT
ATOM     19  C15 UNL A   1      46.404  50.715  18.176  1.00  0.00    +0.000 C 
ATOM     20  C16 UNL A   1      46.693  51.986  17.428  1.00  0.00    +0.000 C 
ATOM     21  N3  UNL A   1      47.711  52.803  17.547  1.00  0.00    +0.000 N 
ATOM     22  C17 UNL A   1      47.506  53.803  16.606  1.00  0.00    +0.000 C 
ATOM     23  C18 UNL A   1      48.250  54.912  16.376  1.00  0.00    +0.000 C 
ATOM     35  C25 UNL A   1      49.444  55.258  17.102  1.00  0.00    +0.000 C 
ATOM     36  C26 UNL A   1      50.239  56.383  16.972  1.00  0.00    +0.000 C 
ATOM     37  C27 UNL A   1      51.308  56.271  17.867  1.00  0.00    +0.000 C 
ATOM     38  C28 UNL A   1      51.159  55.094  18.581  1.00  0.00    +0.000 C 
ATOM     39  N4  UNL A   1      50.015  54.479  18.098  1.00  0.00    +0.000 N 
ATOM     40  C29 UNL A   1      51.995  54.567  19.627  1.00  0.00    +0.000 C 
ATOM     52  C36 UNL A   1      51.774  53.403  20.286  1.00  0.00    +0.000 C 
ATOM     53  N5  UNL A   1      50.746  52.488  20.118  1.00  0.00    +0.000 N 
ATOM     54  C37 UNL A   1      50.984  51.519  20.967  1.00  0.00    +0.000 C 
ATOM     55  C38 UNL A   1      50.183  50.275  21.239  1.00  0.00    +0.000 C 
ATOM     67  C45 UNL A   1      49.038  50.069  20.563  1.00  0.00    +0.000 C 
ATOM     68  C46 UNL A   1      48.150  48.923  20.732  1.00  0.00    +0.000 C 
ATOM     69  C47 UNL A   1      47.121  49.034  19.878  1.00  0.00    +0.000 C 
ATOM     70  C48 UNL A   1      47.263  50.278  19.118  1.00  0.00    +0.000 C 
ATOM     71  N6  UNL A   1      48.429  50.825  19.591  1.00  0.00    +0.000 N 
ATOM     72  C49 UNL A   1      52.210  51.703  21.757  1.00  0.00    +0.000 C 
ATOM     73  C50 UNL A   1      52.630  52.885  21.333  1.00  0.00    +0.000 C 
ATOM     74  C51 UNL A   1      46.293  53.469  15.891  1.00  0.00    +0.000 C 
ATOM     75  C52 UNL A   1      45.722  52.385  16.397  1.00  0.00    +0.000 C 
ATOM    112  H21 UNL A   1      50.070  57.171  16.326  1.00  0.00    +0.000 H 
ATOM    113  H22 UNL A   1      52.079  56.950  17.975  1.00  0.00    +0.000 H 
ATOM    114  H23 UNL A   1      49.660  53.617  18.415  1.00  0.00    +0.000 H 
ATOM    115  H24 UNL A   1      48.290  48.150  21.403  1.00  0.00    +0.000 H 
ATOM    116  H25 UNL A   1      46.354  48.353  19.772  1.00  0.00    +0.000 H 
ATOM    117  H26 UNL A   1      48.795  51.680  19.266  1.00  0.00    +0.000 H 
ATOM    118  H27 UNL A   1      52.633  51.074  22.458  1.00  0.00    +0.000 H 
ATOM    119  H28 UNL A   1      53.460  53.375  21.701  1.00  0.00    +0.000 H 
ATOM    120  H29 UNL A   1      45.922  54.004  15.091  1.00  0.00    +0.000 H 
ATOM    121  H30 UNL A   1      44.829  51.937  16.137  1.00  0.00    +0.000 H 
ENDROOT
BRANCH   19   18
ATOM     76  C53 UNL A   1      43.987  50.156  18.503  1.00  0.00    +0.000 C 
ATOM     77  C54 UNL A   1      42.850  49.413  18.187  1.00  0.00    +0.000 C 
ATOM    110  H19 UNL A   1      44.154  47.461  15.790  1.00  0.00    +0.000 H 
ATOM     15  C11 UNL A   1      42.895  48.471  17.154  1.00  0.00    +0.000 C 
ATOM     16  C12 UNL A   1      44.110  48.188  16.522  1.00  0.00    +0.000 C 
ATOM     17  C13 UNL A   1      45.262  48.891  16.880  1.00  0.00    +0.000 C 
ATOM    111  H20 UNL A   1      46.162  48.664  16.429  1.00  0.00    +0.000 H 
ATOM     18  C14 UNL A   1      45.203  49.905  17.851  1.00  0.00    +0.000 C 
ATOM    122  H31 UNL A   1      43.933  50.896  19.220  1.00  0.00    +0.000 H 
ATOM    123  H32 UNL A   1      41.976  49.557  18.716  1.00  0.00    +0.000 H 
BRANCH   15   13
ATOM     13  C10 UNL A   1      41.684  47.739  16.721  1.00  0.00    +0.000 C 
ATOM     14  O2  UNL A   1      41.005  48.182  15.800  1.00  0.00    +0.000 O 
BRANCH   13   12
ATOM     12  N2  UNL A   1      41.306  46.585  17.359  1.00  0.00    +0.000 N 
ATOM    109  H18 UNL A   1      40.698  46.706  18.124  1.00  0.00    +0.000 H 
BRANCH   12   11
ATOM     11  C9  UNL A   1      41.671  45.208  17.070  1.00  0.00    +0.000 C 
ATOM    108  H17 UNL A   1      42.736  45.133  17.136  1.00  0.00    +0.000 H 
ATOM    107  H16 UNL A   1      41.319  44.958  16.090  1.00  0.00    +0.000 H 
BRANCH   11   10
ATOM    105  H14 UNL A   1      40.337  44.741  18.647  1.00  0.00    +0.000 H 
ATOM     10  C8  UNL A   1      41.073  44.221  18.070  1.00  0.00    +0.000 C 
ATOM    106  H15 UNL A   1      40.672  43.417  17.489  1.00  0.00    +0.000 H 
BRANCH   10    9
ATOM      9  C7  UNL A   1      42.073  43.587  19.039  1.00  0.00    +0.000 C 
ATOM    103  H12 UNL A   1      42.184  42.557  18.772  1.00  0.00    +0.000 H 
ATOM    104  H13 UNL A   1      42.975  44.154  18.946  1.00  0.00    +0.000 H 
BRANCH    9    8
ATOM    101  H10 UNL A   1      42.028  44.585  20.909  1.00  0.00    +0.000 H 
ATOM    102  H11 UNL A   1      40.618  43.539  20.544  1.00  0.00    +0.000 H 
ATOM      8  C6  UNL A   1      41.682  43.652  20.516  1.00  0.00    +0.000 C 
BRANCH    8    7
ATOM     99  H8  UNL A   1      41.919  42.703  22.404  1.00  0.00    +0.000 H 
ATOM    100  H9  UNL A   1      41.883  41.614  20.985  1.00  0.00    +0.000 H 
ATOM      7  C5  UNL A   1      42.246  42.530  21.400  1.00  0.00    +0.000 C 
BRANCH    7    6
ATOM     97  H6  UNL A   1      44.048  41.385  21.320  1.00  0.00    +0.000 H 
ATOM     98  H7  UNL A   1      44.160  42.986  20.593  1.00  0.00    +0.000 H 
ATOM      6  C4  UNL A   1      43.776  42.416  21.412  1.00  0.00    +0.000 C 
BRANCH    6    5
ATOM      5  N1  UNL A   1      44.342  42.945  22.639  1.00  0.00    +0.000 N 
ATOM     96  H5  UNL A   1      43.764  42.959  23.437  1.00  0.00    +0.000 H 
BRANCH    5    3
ATOM      3  C3  UNL A   1      45.619  43.426  22.770  1.00  0.00    +0.000 C 
ATOM      4  O1  UNL A   1      46.464  42.629  23.179  1.00  0.00    +0.000 O 
BRANCH    3    2
ATOM      2  C2  UNL A   1      45.918  44.884  22.372  1.00  0.00    +0.000 C 
ATOM     95  H4  UNL A   1      46.831  45.158  22.859  1.00  0.00    +0.000 H 
BRANCH    2    1
ATOM      1  C1  UNL A   1      44.728  45.736  22.833  1.00  0.00    +0.000 C 
ATOM     92  H1  UNL A   1      43.835  45.149  22.800  1.00  0.00    +0.000 H 
ATOM     93  H2  UNL A   1      44.622  46.581  22.184  1.00  0.00    +0.000 H 
ATOM     94  H3  UNL A   1      44.897  46.074  23.834  1.00  0.00    +0.000 H 
ENDBRANCH    2    1
BRANCH    2   78
ATOM    137  H46 UNL A   1      48.824  45.600  18.755  1.00  0.00    +0.000 H 
ATOM     78  C55 UNL A   1      46.244  45.138  20.889  1.00  0.00    +0.000 C 
ATOM     79  C56 UNL A   1      45.225  45.336  19.938  1.00  0.00    +0.000 C 
ATOM     80  C57 UNL A   1      45.500  45.625  18.599  1.00  0.00    +0.000 C 
ATOM     81  C58 UNL A   1      46.812  45.712  18.144  1.00  0.00    +0.000 C 
ATOM     89  C65 UNL A   1      47.844  45.517  19.066  1.00  0.00    +0.000 C 
ATOM     90  C66 UNL A   1      47.569  45.209  20.409  1.00  0.00    +0.000 C 
ATOM     91 Br1  UNL A   1      49.097  44.829  21.484  1.00  0.00    +0.000 Br
ATOM    124  H33 UNL A   1      44.241  45.265  20.240  1.00  0.00    +0.000 H 
ATOM    125  H34 UNL A   1      44.721  45.774  17.938  1.00  0.00    +0.000 H 
BRANCH   81   82
ATOM     82  C59 UNL A   1      47.105  45.976  16.688  1.00  0.00    +0.000 C 
ATOM    126  H35 UNL A   1      46.517  46.815  16.381  1.00  0.00    +0.000 H 
ATOM    127  H36 UNL A   1      46.869  45.067  16.174  1.00  0.00    +0.000 H 
BRANCH   82   83
ATOM    129  H38 UNL A   1      48.677  44.512  15.114  1.00  0.00    +0.000 H 
ATOM    130  H39 UNL A   1      49.878  44.545  16.349  1.00  0.00    +0.000 H 
ATOM    131  H40 UNL A   1      49.995  45.682  13.661  1.00  0.00    +0.000 H 
ATOM    132  H41 UNL A   1      51.303  45.458  14.755  1.00  0.00    +0.000 H 
ATOM    133  H42 UNL A   1      50.467  47.926  14.160  1.00  0.00    +0.000 H 
ATOM    134  H43 UNL A   1      50.962  47.613  15.758  1.00  0.00    +0.000 H 
ATOM    135  H44 UNL A   1      48.119  47.587  14.647  1.00  0.00    +0.000 H 
ATOM     83  C60 UNL A   1      48.573  46.279  16.346  1.00  0.00    +0.000 C 
ATOM     84  C61 UNL A   1      49.351  45.152  15.645  1.00  0.00    +0.000 C 
ATOM     85  C62 UNL A   1      50.309  45.842  14.670  1.00  0.00    +0.000 C 
ATOM     86  C63 UNL A   1      50.249  47.322  15.016  1.00  0.00    +0.000 C 
ATOM     87  C64 UNL A   1      48.807  47.507  15.463  1.00  0.00    +0.000 C 
ATOM    128  H37 UNL A   1      48.937  46.434  17.340  1.00  0.00    +0.000 H 
BRANCH   87   88
ATOM    136  H45 UNL A   1      49.446  49.235  16.145  1.00  0.00    +0.000 H 
ATOM     88  O3  UNL A   1      48.635  48.704  16.198  1.00  0.00    +0.000 O 
ENDBRANCH   87   88
ENDBRANCH   82   83
ENDBRANCH   81   82
ENDBRANCH    2   78
ENDBRANCH    3    2
ENDBRANCH    5    3
ENDBRANCH    6    5
ENDBRANCH    7    6
ENDBRANCH    8    7
ENDBRANCH    9    8
ENDBRANCH   10    9
ENDBRANCH   11   10
ENDBRANCH   12   11
ENDBRANCH   13   12
ENDBRANCH   15   13
ENDBRANCH   19   18
BRANCH   23   24
ATOM     33  C24 UNL A   1      47.043  56.996  15.623  1.00  0.00    +0.000 C 
ATOM     34  F5  UNL A   1      46.782  57.295  16.906  1.00  0.00    +0.000 F 
ATOM     24  C19 UNL A   1      47.785  55.850  15.301  1.00  0.00    +0.000 C 
ATOM     25  C20 UNL A   1      48.025  55.583  13.945  1.00  0.00    +0.000 C 
ATOM     26  F1  UNL A   1      48.739  54.505  13.587  1.00  0.00    +0.000 F 
ATOM     27  C21 UNL A   1      47.554  56.438  12.952  1.00  0.00    +0.000 C 
ATOM     28  F2  UNL A   1      47.825  56.180  11.665  1.00  0.00    +0.000 F 
ATOM     29  C22 UNL A   1      46.812  57.559  13.293  1.00  0.00    +0.000 C 
ATOM     30  F3  UNL A   1      46.349  58.374  12.336  1.00  0.00    +0.000 F 
ATOM     31  C23 UNL A   1      46.552  57.836  14.627  1.00  0.00    +0.000 C 
ATOM     32  F4  UNL A   1      45.825  58.912  14.957  1.00  0.00    +0.000 F 
ENDBRANCH   23   24
BRANCH   40   41
ATOM     41  C30 UNL A   1      53.195  55.367  20.039  1.00  0.00    +0.000 C 
ATOM     42  C31 UNL A   1      54.471  55.093  19.527  1.00  0.00    +0.000 C 
ATOM     43  F6  UNL A   1      54.651  54.070  18.677  1.00  0.00    +0.000 F 
ATOM     44  C32 UNL A   1      55.577  55.839  19.924  1.00  0.00    +0.000 C 
ATOM     45  F7  UNL A   1      56.795  55.526  19.461  1.00  0.00    +0.000 F 
ATOM     46  C33 UNL A   1      55.423  56.893  20.812  1.00  0.00    +0.000 C 
ATOM     47  F8  UNL A   1      56.488  57.612  21.192  1.00  0.00    +0.000 F 
ATOM     48  C34 UNL A   1      54.166  57.197  21.313  1.00  0.00    +0.000 C 
ATOM     49  F9  UNL A   1      54.014  58.222  22.163  1.00  0.00    +0.000 F 
ATOM     50  C35 UNL A   1      53.063  56.436  20.940  1.00  0.00    +0.000 C 
ATOM     51  F10 UNL A   1      51.862  56.742  21.454  1.00  0.00    +0.000 F 
ENDBRANCH   40   41
BRANCH   55   56
ATOM     65  C44 UNL A   1      50.275  49.419  23.604  1.00  0.00    +0.000 C 
ATOM     66  F15 UNL A   1      49.526  50.457  24.004  1.00  0.00    +0.000 F 
ATOM     56  C39 UNL A   1      50.636  49.292  22.256  1.00  0.00    +0.000 C 
ATOM     57  C40 UNL A   1      51.425  48.192  21.892  1.00  0.00    +0.000 C 
ATOM     58  F11 UNL A   1      51.777  48.016  20.610  1.00  0.00    +0.000 F 
ATOM     59  C41 UNL A   1      51.815  47.243  22.834  1.00  0.00    +0.000 C 
ATOM     60  F12 UNL A   1      52.525  46.173  22.450  1.00  0.00    +0.000 F 
ATOM     61  C42 UNL A   1      51.449  47.391  24.163  1.00  0.00    +0.000 C 
ATOM     62  F13 UNL A   1      51.822  46.477  25.069  1.00  0.00    +0.000 F 
ATOM     63  C43 UNL A   1      50.688  48.484  24.551  1.00  0.00    +0.000 C 
ATOM     64  F14 UNL A   1      50.344  48.638  25.837  1.00  0.00    +0.000 F 
ENDBRANCH   55   56
TORSDOF 20
ENDMDL
