MODEL 1
REMARK VINA RESULT:     -10.7      0.000      0.000
ROOT
ATOM    131  H30 UNL A   1      28.300  16.030   6.484  1.00  0.00    +0.000 H 
ATOM    132  H31 UNL A   1      26.478  14.111   6.763  1.00  0.00    +0.000 H 
ATOM    133  H32 UNL A   1      25.476  17.239   9.107  1.00  0.00    +0.000 H 
ATOM    134  H33 UNL A   1      19.392  17.734   3.729  1.00  0.00    +0.000 H 
ATOM    135  H34 UNL A   1      21.373  17.732   2.128  1.00  0.00    +0.000 H 
ATOM    136  H35 UNL A   1      22.923  17.664   5.984  1.00  0.00    +0.000 H 
ATOM    137  H36 UNL A   1      21.545  19.135   8.655  1.00  0.00    +0.000 H 
ATOM    138  H37 UNL A   1      23.646  17.821   9.362  1.00  0.00    +0.000 H 
ATOM    139  H38 UNL A   1      27.002  21.017   5.469  1.00  0.00    +0.000 H 
ATOM    140  H39 UNL A   1      25.128  20.977   3.710  1.00  0.00    +0.000 H 
ATOM     41  C30 UNL A   1      23.859  18.413   3.452  1.00  0.00    +0.000 C 
ATOM     42  C31 UNL A   1      24.948  18.820   4.396  1.00  0.00    +0.000 C 
ATOM     43  N9  UNL A   1      25.586  18.091   5.258  1.00  0.00    +0.000 N 
ATOM     44  C32 UNL A   1      26.407  18.964   5.974  1.00  0.00    +0.000 C 
ATOM     45  C33 UNL A   1      26.868  18.658   7.219  1.00  0.00    +0.000 C 
ATOM     57  C40 UNL A   1      26.803  17.245   7.473  1.00  0.00    +0.000 C 
ATOM     58  C41 UNL A   1      27.369  16.115   6.921  1.00  0.00    +0.000 C 
ATOM     59  C42 UNL A   1      26.392  15.088   7.082  1.00  0.00    +0.000 C 
ATOM     60  C43 UNL A   1      25.300  15.643   7.751  1.00  0.00    +0.000 C 
ATOM     61  N10 UNL A   1      25.792  16.801   8.284  1.00  0.00    +0.000 N 
ATOM     62  C44 UNL A   1      23.902  15.285   7.794  1.00  0.00    +0.000 C 
ATOM     74  C51 UNL A   1      22.897  16.137   8.150  1.00  0.00    +0.000 C 
ATOM     75  N11 UNL A   1      21.627  15.984   7.621  1.00  0.00    +0.000 N 
ATOM     76  C52 UNL A   1      21.141  17.193   7.571  1.00  0.00    +0.000 C 
ATOM     77  C53 UNL A   1      20.211  17.662   6.520  1.00  0.00    +0.000 C 
ATOM     89  C60 UNL A   1      20.895  17.687   5.354  1.00  0.00    +0.000 C 
ATOM     90  C61 UNL A   1      20.387  17.740   4.001  1.00  0.00    +0.000 C 
ATOM     91  C62 UNL A   1      21.433  17.797   3.157  1.00  0.00    +0.000 C 
ATOM     92  C63 UNL A   1      22.672  17.965   3.921  1.00  0.00    +0.000 C 
ATOM     93  N12 UNL A   1      22.295  17.755   5.232  1.00  0.00    +0.000 N 
ATOM     94  C64 UNL A   1      21.818  18.173   8.403  1.00  0.00    +0.000 C 
ATOM     95  C65 UNL A   1      22.898  17.467   8.746  1.00  0.00    +0.000 C 
ATOM     96  C66 UNL A   1      26.379  20.219   5.271  1.00  0.00    +0.000 C 
ATOM     97  C67 UNL A   1      25.436  20.211   4.329  1.00  0.00    +0.000 C 
ENDROOT
BRANCH   41   40
ATOM    129  H28 UNL A   1      22.932  21.079  -0.167  1.00  0.00    +0.000 H 
ATOM     98  C68 UNL A   1      24.694  17.957   1.165  1.00  0.00    +0.000 C 
ATOM     99  C69 UNL A   1      24.766  18.263  -0.177  1.00  0.00    +0.000 C 
ATOM    130  H29 UNL A   1      22.959  20.634   2.226  1.00  0.00    +0.000 H 
ATOM     37  C26 UNL A   1      24.045  19.351  -0.665  1.00  0.00    +0.000 C 
ATOM     38  C27 UNL A   1      23.405  20.239   0.202  1.00  0.00    +0.000 C 
ATOM     39  C28 UNL A   1      23.411  19.977   1.570  1.00  0.00    +0.000 C 
ATOM     40  C29 UNL A   1      24.034  18.819   2.050  1.00  0.00    +0.000 C 
ATOM    141  H40 UNL A   1      25.128  17.089   1.519  1.00  0.00    +0.000 H 
ATOM    142  H41 UNL A   1      25.347  17.694  -0.813  1.00  0.00    +0.000 H 
BRANCH   37   35
ATOM     35  C25 UNL A   1      23.912  19.527  -2.123  1.00  0.00    +0.000 C 
ATOM     36  O3  UNL A   1      23.916  18.564  -2.864  1.00  0.00    +0.000 O 
BRANCH   35   34
ATOM     34  N8  UNL A   1      23.805  20.812  -2.623  1.00  0.00    +0.000 N 
ATOM    128  H27 UNL A   1      23.221  21.430  -2.128  1.00  0.00    +0.000 H 
BRANCH   34   33
ATOM     33  C24 UNL A   1      24.468  21.346  -3.809  1.00  0.00    +0.000 C 
ATOM    126  H25 UNL A   1      24.111  20.824  -4.672  1.00  0.00    +0.000 H 
ATOM    127  H26 UNL A   1      24.245  22.390  -3.877  1.00  0.00    +0.000 H 
BRANCH   33   32
ATOM    124  H23 UNL A   1      26.318  21.640  -2.814  1.00  0.00    +0.000 H 
ATOM    125  H24 UNL A   1      26.186  20.135  -3.753  1.00  0.00    +0.000 H 
ATOM     32  C23 UNL A   1      25.980  21.185  -3.722  1.00  0.00    +0.000 C 
BRANCH   32   31
ATOM    122  H21 UNL A   1      27.026  21.042  -5.565  1.00  0.00    +0.000 H 
ATOM    123  H22 UNL A   1      26.062  22.537  -5.322  1.00  0.00    +0.000 H 
ATOM     31  C22 UNL A   1      26.737  21.825  -4.894  1.00  0.00    +0.000 C 
BRANCH   31   30
ATOM    121  H20 UNL A   1      28.810  21.921  -4.574  1.00  0.00    +0.000 H 
ATOM     30  C21 UNL A   1      28.000  22.619  -4.522  1.00  0.00    +0.000 C 
ATOM    120  H19 UNL A   1      27.851  23.037  -3.549  1.00  0.00    +0.000 H 
BRANCH   30   29
ATOM     29  C20 UNL A   1      28.369  23.764  -5.479  1.00  0.00    +0.000 C 
ATOM    118  H17 UNL A   1      27.955  24.672  -5.093  1.00  0.00    +0.000 H 
ATOM    119  H18 UNL A   1      29.437  23.794  -5.534  1.00  0.00    +0.000 H 
BRANCH   29   28
ATOM    116  H15 UNL A   1      28.682  23.436  -7.568  1.00  0.00    +0.000 H 
ATOM     28  C19 UNL A   1      27.851  23.563  -6.907  1.00  0.00    +0.000 C 
ATOM    117  H16 UNL A   1      27.227  22.695  -6.933  1.00  0.00    +0.000 H 
BRANCH   28   27
ATOM     27  N7  UNL A   1      27.078  24.715  -7.325  1.00  0.00    +0.000 N 
ATOM    115  H14 UNL A   1      27.636  25.499  -7.533  1.00  0.00    +0.000 H 
BRANCH   27   25
ATOM     25  C18 UNL A   1      25.738  24.949  -7.492  1.00  0.00    +0.000 C 
ATOM     26  O2  UNL A   1      25.258  24.670  -8.593  1.00  0.00    +0.000 O 
BRANCH   25   24
ATOM    100  C70 UNL A   1      24.184  26.791  -6.616  1.00  0.00    +0.000 C 
ATOM    101  C71 UNL A   1      23.274  27.230  -5.645  1.00  0.00    +0.000 C 
ATOM    143  H42 UNL A   1      24.356  27.371  -7.452  1.00  0.00    +0.000 H 
ATOM    144  H43 UNL A   1      22.722  28.086  -5.802  1.00  0.00    +0.000 H 
ATOM    113  H12 UNL A   1      23.850  24.883  -3.315  1.00  0.00    +0.000 H 
ATOM    114  H13 UNL A   1      25.263  24.022  -5.090  1.00  0.00    +0.000 H 
ATOM     21  C14 UNL A   1      23.118  26.502  -4.459  1.00  0.00    +0.000 C 
ATOM     22  C15 UNL A   1      23.893  25.367  -4.225  1.00  0.00    +0.000 C 
ATOM     23  C16 UNL A   1      24.729  24.893  -5.241  1.00  0.00    +0.000 C 
ATOM     24  C17 UNL A   1      24.859  25.578  -6.463  1.00  0.00    +0.000 C 
BRANCH   21   20
ATOM      2  C2  UNL A   1      22.391  27.864  -2.468  1.00  0.00    +0.000 C 
ATOM      3  C3  UNL A   1      21.263  27.706  -1.689  1.00  0.00    +0.000 C 
ATOM     18  N4  UNL A   1      20.400  26.831  -2.277  1.00  0.00    +0.000 N 
ATOM     19  N5  UNL A   1      20.952  26.427  -3.416  1.00  0.00    +0.000 N 
ATOM     20  N6  UNL A   1      22.205  26.937  -3.476  1.00  0.00    +0.000 N 
BRANCH    2    1
ATOM      1  C1  UNL A   1      23.480  28.866  -2.399  1.00  0.00    +0.000 C 
ATOM    102  H1  UNL A   1      23.068  29.848  -2.509  1.00  0.00    +0.000 H 
ATOM    103  H2  UNL A   1      24.183  28.684  -3.185  1.00  0.00    +0.000 H 
ATOM    104  H3  UNL A   1      23.975  28.790  -1.453  1.00  0.00    +0.000 H 
ENDBRANCH    2    1
BRANCH    3    4
ATOM      4  C4  UNL A   1      20.925  28.412  -0.459  1.00  0.00    +0.000 C 
ATOM      5  N1  UNL A   1      19.921  29.295  -0.398  1.00  0.00    +0.000 N 
ATOM      6  N2  UNL A   1      20.046  29.864   0.820  1.00  0.00    +0.000 N 
ATOM     13  C11 UNL A   1      21.087  29.319   1.537  1.00  0.00    +0.000 C 
ATOM     14  C12 UNL A   1      21.647  28.326   0.755  1.00  0.00    +0.000 C 
ATOM    110  H9  UNL A   1      21.391  29.598   2.483  1.00  0.00    +0.000 H 
BRANCH    6    7
ATOM      7  C5  UNL A   1      19.186  30.909   1.225  1.00  0.00    +0.000 C 
ATOM      8  C6  UNL A   1      18.504  30.800   2.443  1.00  0.00    +0.000 C 
ATOM      9  C7  UNL A   1      17.678  31.840   2.868  1.00  0.00    +0.000 C 
ATOM    105  H4  UNL A   1      18.613  29.954   3.024  1.00  0.00    +0.000 H 
ATOM     11  C9  UNL A   1      18.141  33.051   0.827  1.00  0.00    +0.000 C 
ATOM     12  C10 UNL A   1      19.014  32.040   0.417  1.00  0.00    +0.000 C 
ATOM    109  H8  UNL A   1      19.527  32.126  -0.475  1.00  0.00    +0.000 H 
ATOM     10  C8  UNL A   1      17.487  32.958   2.056  1.00  0.00    +0.000 C 
ATOM    106  H5  UNL A   1      17.206  31.783   3.785  1.00  0.00    +0.000 H 
ATOM    108  H7  UNL A   1      17.980  33.869   0.218  1.00  0.00    +0.000 H 
ATOM    107  H6  UNL A   1      16.861  33.719   2.364  1.00  0.00    +0.000 H 
ENDBRANCH    6    7
BRANCH   14   15
ATOM    111  H10 UNL A   1      23.697  27.712   0.959  1.00  0.00    +0.000 H 
ATOM     15  C13 UNL A   1      22.720  27.460   1.171  1.00  0.00    +0.000 C 
BRANCH   15   16
ATOM     16  N3  UNL A   1      22.459  26.367   1.811  1.00  0.00    +0.000 N 
BRANCH   16   17
ATOM     17  O1  UNL A   1      21.127  26.005   1.580  1.00  0.00    +0.000 O 
ATOM    112  H11 UNL A   1      20.820  25.879   0.703  1.00  0.00    +0.000 H 
ENDBRANCH   16   17
ENDBRANCH   15   16
ENDBRANCH   14   15
ENDBRANCH    3    4
ENDBRANCH   21   20
ENDBRANCH   25   24
ENDBRANCH   27   25
ENDBRANCH   28   27
ENDBRANCH   29   28
ENDBRANCH   30   29
ENDBRANCH   31   30
ENDBRANCH   32   31
ENDBRANCH   33   32
ENDBRANCH   34   33
ENDBRANCH   35   34
ENDBRANCH   37   35
ENDBRANCH   41   40
BRANCH   45   46
ATOM     46  C34 UNL A   1      27.004  19.658   8.354  1.00  0.00    +0.000 C 
ATOM     47  C35 UNL A   1      28.121  19.573   9.214  1.00  0.00    +0.000 C 
ATOM     48  F1  UNL A   1      29.188  18.832   8.878  1.00  0.00    +0.000 F 
ATOM     49  C36 UNL A   1      28.128  20.159  10.484  1.00  0.00    +0.000 C 
ATOM     50  F2  UNL A   1      29.152  19.932  11.318  1.00  0.00    +0.000 F 
ATOM     51  C37 UNL A   1      27.049  20.906  10.915  1.00  0.00    +0.000 C 
ATOM     52  F3  UNL A   1      27.021  21.411  12.157  1.00  0.00    +0.000 F 
ATOM     53  C38 UNL A   1      25.975  21.087  10.071  1.00  0.00    +0.000 C 
ATOM     54  F4  UNL A   1      24.913  21.798  10.478  1.00  0.00    +0.000 F 
ATOM     55  C39 UNL A   1      25.942  20.460   8.825  1.00  0.00    +0.000 C 
ATOM     56  F5  UNL A   1      24.790  20.583   8.157  1.00  0.00    +0.000 F 
ENDBRANCH   45   46
BRANCH   62   63
ATOM     65  F6  UNL A   1      23.891  14.726   4.918  1.00  0.00    +0.000 F 
ATOM     66  C47 UNL A   1      23.214  12.506   5.241  1.00  0.00    +0.000 C 
ATOM     67  F7  UNL A   1      23.210  12.319   3.913  1.00  0.00    +0.000 F 
ATOM     68  C48 UNL A   1      22.938  11.444   6.087  1.00  0.00    +0.000 C 
ATOM     69  F8  UNL A   1      22.675  10.231   5.582  1.00  0.00    +0.000 F 
ATOM     70  C49 UNL A   1      22.961  11.635   7.460  1.00  0.00    +0.000 C 
ATOM     71  F9  UNL A   1      22.745  10.600   8.284  1.00  0.00    +0.000 F 
ATOM     72  C50 UNL A   1      23.231  12.893   7.987  1.00  0.00    +0.000 C 
ATOM     73  F10 UNL A   1      23.264  13.040   9.322  1.00  0.00    +0.000 F 
ATOM     63  C45 UNL A   1      23.513  13.985   7.155  1.00  0.00    +0.000 C 
ATOM     64  C46 UNL A   1      23.527  13.756   5.769  1.00  0.00    +0.000 C 
ENDBRANCH   62   63
BRANCH   77   78
ATOM     78  C54 UNL A   1      18.876  18.224   6.814  1.00  0.00    +0.000 C 
ATOM     79  C55 UNL A   1      18.441  19.419   6.221  1.00  0.00    +0.000 C 
ATOM     80  F11 UNL A   1      19.299  20.174   5.521  1.00  0.00    +0.000 F 
ATOM     81  C56 UNL A   1      17.105  19.823   6.286  1.00  0.00    +0.000 C 
ATOM     82  F12 UNL A   1      16.714  20.941   5.659  1.00  0.00    +0.000 F 
ATOM     83  C57 UNL A   1      16.169  19.047   6.952  1.00  0.00    +0.000 C 
ATOM     84  F13 UNL A   1      14.878  19.408   6.967  1.00  0.00    +0.000 F 
ATOM     85  C58 UNL A   1      16.570  17.876   7.567  1.00  0.00    +0.000 C 
ATOM     86  F14 UNL A   1      15.668  17.100   8.185  1.00  0.00    +0.000 F 
ATOM     87  C59 UNL A   1      17.901  17.468   7.494  1.00  0.00    +0.000 C 
ATOM     88  F15 UNL A   1      18.204  16.273   8.023  1.00  0.00    +0.000 F 
ENDBRANCH   77   78
TORSDOF 22
ENDMDL
MODEL 2
REMARK VINA RESULT:     -10.3     43.909     50.959
ROOT
ATOM    131  H30 UNL A   1      19.228  37.562  44.380  1.00  0.00    +0.000 H 
ATOM    132  H31 UNL A   1      18.227  38.554  46.637  1.00  0.00    +0.000 H 
ATOM    133  H32 UNL A   1      19.366  34.732  47.259  1.00  0.00    +0.000 H 
ATOM    134  H33 UNL A   1      24.915  38.441  51.911  1.00  0.00    +0.000 H 
ATOM    135  H34 UNL A   1      25.285  39.700  49.727  1.00  0.00    +0.000 H 
ATOM    136  H35 UNL A   1      22.385  36.813  48.994  1.00  0.00    +0.000 H 
ATOM    137  H36 UNL A   1      22.237  33.801  50.444  1.00  0.00    +0.000 H 
ATOM    138  H37 UNL A   1      20.198  34.135  48.903  1.00  0.00    +0.000 H 
ATOM    139  H38 UNL A   1      23.871  35.115  44.193  1.00  0.00    +0.000 H 
ATOM    140  H39 UNL A   1      25.503  36.459  45.654  1.00  0.00    +0.000 H 
ATOM     41  C30 UNL A   1      24.195  38.286  47.444  1.00  0.00    +0.000 C 
ATOM     42  C31 UNL A   1      23.572  37.317  46.486  1.00  0.00    +0.000 C 
ATOM     43  N9  UNL A   1      22.316  37.135  46.222  1.00  0.00    +0.000 N 
ATOM     44  C32 UNL A   1      22.255  36.038  45.360  1.00  0.00    +0.000 C 
ATOM     45  C33 UNL A   1      21.126  35.288  45.231  1.00  0.00    +0.000 C 
ATOM     57  C40 UNL A   1      19.964  36.000  45.689  1.00  0.00    +0.000 C 
ATOM     58  C41 UNL A   1      19.308  37.159  45.326  1.00  0.00    +0.000 C 
ATOM     59  C42 UNL A   1      18.766  37.680  46.538  1.00  0.00    +0.000 C 
ATOM     60  C43 UNL A   1      19.096  36.795  47.566  1.00  0.00    +0.000 C 
ATOM     61  N10 UNL A   1      19.457  35.650  46.912  1.00  0.00    +0.000 N 
ATOM     62  C44 UNL A   1      19.243  36.970  48.991  1.00  0.00    +0.000 C 
ATOM     74  C51 UNL A   1      19.954  36.134  49.803  1.00  0.00    +0.000 C 
ATOM     75  N11 UNL A   1      20.561  36.619  50.949  1.00  0.00    +0.000 N 
ATOM     76  C52 UNL A   1      21.619  35.872  51.104  1.00  0.00    +0.000 C 
ATOM     77  C53 UNL A   1      22.894  36.362  51.675  1.00  0.00    +0.000 C 
ATOM     89  C60 UNL A   1      23.417  37.250  50.798  1.00  0.00    +0.000 C 
ATOM     90  C61 UNL A   1      24.444  38.245  51.014  1.00  0.00    +0.000 C 
ATOM     91  C62 UNL A   1      24.681  38.871  49.847  1.00  0.00    +0.000 C 
ATOM     92  C63 UNL A   1      23.949  38.196  48.771  1.00  0.00    +0.000 C 
ATOM     93  N12 UNL A   1      23.108  37.321  49.428  1.00  0.00    +0.000 N 
ATOM     94  C64 UNL A   1      21.609  34.616  50.374  1.00  0.00    +0.000 C 
ATOM     95  C65 UNL A   1      20.552  34.823  49.586  1.00  0.00    +0.000 C 
ATOM     96  C66 UNL A   1      23.606  35.770  44.945  1.00  0.00    +0.000 C 
ATOM     97  C67 UNL A   1      24.472  36.483  45.667  1.00  0.00    +0.000 C 
ENDROOT
BRANCH   41   40
ATOM    129  H28 UNL A   1      28.640  39.333  46.992  1.00  0.00    +0.000 H 
ATOM     98  C68 UNL A   1      25.011  40.342  46.331  1.00  0.00    +0.000 C 
ATOM     99  C69 UNL A   1      26.036  41.175  45.934  1.00  0.00    +0.000 C 
ATOM    130  H29 UNL A   1      26.838  37.786  47.526  1.00  0.00    +0.000 H 
ATOM     37  C26 UNL A   1      27.348  40.841  46.262  1.00  0.00    +0.000 C 
ATOM     38  C27 UNL A   1      27.657  39.597  46.817  1.00  0.00    +0.000 C 
ATOM     39  C28 UNL A   1      26.625  38.717  47.133  1.00  0.00    +0.000 C 
ATOM     40  C29 UNL A   1      25.297  39.102  46.914  1.00  0.00    +0.000 C 
ATOM    141  H40 UNL A   1      24.029  40.635  46.197  1.00  0.00    +0.000 H 
ATOM    142  H41 UNL A   1      25.833  42.036  45.402  1.00  0.00    +0.000 H 
BRANCH   37   35
ATOM     35  C25 UNL A   1      28.412  41.843  46.071  1.00  0.00    +0.000 C 
ATOM     36  O3  UNL A   1      29.553  41.494  45.840  1.00  0.00    +0.000 O 
BRANCH   35   34
ATOM     34  N8  UNL A   1      28.082  43.181  46.181  1.00  0.00    +0.000 N 
ATOM    128  H27 UNL A   1      28.008  43.688  45.341  1.00  0.00    +0.000 H 
BRANCH   34   33
ATOM     33  C24 UNL A   1      27.832  43.920  47.416  1.00  0.00    +0.000 C 
ATOM    126  H25 UNL A   1      28.064  43.291  48.250  1.00  0.00    +0.000 H 
ATOM    127  H26 UNL A   1      28.450  44.793  47.415  1.00  0.00    +0.000 H 
BRANCH   33   32
ATOM    124  H23 UNL A   1      26.188  45.078  46.744  1.00  0.00    +0.000 H 
ATOM    125  H24 UNL A   1      25.776  43.483  47.416  1.00  0.00    +0.000 H 
ATOM     32  C23 UNL A   1      26.378  44.362  47.516  1.00  0.00    +0.000 C 
BRANCH   32   31
ATOM    122  H21 UNL A   1      25.350  44.339  49.374  1.00  0.00    +0.000 H 
ATOM    123  H22 UNL A   1      26.950  45.151  49.373  1.00  0.00    +0.000 H 
ATOM     31  C22 UNL A   1      26.020  45.000  48.866  1.00  0.00    +0.000 C 
BRANCH   31   30
ATOM    121  H20 UNL A   1      26.040  47.062  49.260  1.00  0.00    +0.000 H 
ATOM     30  C21 UNL A   1      25.355  46.384  48.796  1.00  0.00    +0.000 C 
ATOM    120  H19 UNL A   1      24.408  46.320  49.291  1.00  0.00    +0.000 H 
BRANCH   30   29
ATOM     29  C20 UNL A   1      25.112  46.933  47.381  1.00  0.00    +0.000 C 
ATOM    118  H17 UNL A   1      25.651  47.851  47.278  1.00  0.00    +0.000 H 
ATOM    119  H18 UNL A   1      25.447  46.184  46.693  1.00  0.00    +0.000 H 
BRANCH   29   28
ATOM    116  H15 UNL A   1      23.108  47.370  47.984  1.00  0.00    +0.000 H 
ATOM     28  C19 UNL A   1      23.636  47.200  47.069  1.00  0.00    +0.000 C 
ATOM    117  H16 UNL A   1      23.562  48.061  46.440  1.00  0.00    +0.000 H 
BRANCH   28   27
ATOM     27  N7  UNL A   1      23.055  46.062  46.385  1.00  0.00    +0.000 N 
ATOM    115  H14 UNL A   1      23.305  46.015  45.434  1.00  0.00    +0.000 H 
BRANCH   27   25
ATOM     25  C18 UNL A   1      22.231  45.039  46.776  1.00  0.00    +0.000 C 
ATOM     26  O2  UNL A   1      21.207  44.865  46.111  1.00  0.00    +0.000 O 
BRANCH   25   24
ATOM    100  C70 UNL A   1      23.037  42.916  47.968  1.00  0.00    +0.000 C 
ATOM    101  C71 UNL A   1      23.332  42.254  49.167  1.00  0.00    +0.000 C 
ATOM    143  H42 UNL A   1      23.249  42.459  47.068  1.00  0.00    +0.000 H 
ATOM    144  H43 UNL A   1      23.831  41.352  49.151  1.00  0.00    +0.000 H 
ATOM    113  H12 UNL A   1      21.872  44.394  51.301  1.00  0.00    +0.000 H 
ATOM    114  H13 UNL A   1      21.553  45.628  49.235  1.00  0.00    +0.000 H 
ATOM     21  C14 UNL A   1      22.948  42.822  50.388  1.00  0.00    +0.000 C 
ATOM     22  C15 UNL A   1      22.238  44.021  50.411  1.00  0.00    +0.000 C 
ATOM     23  C16 UNL A   1      22.031  44.713  49.214  1.00  0.00    +0.000 C 
ATOM     24  C17 UNL A   1      22.459  44.188  47.980  1.00  0.00    +0.000 C 
BRANCH   21   20
ATOM      2  C2  UNL A   1      24.458  42.026  52.241  1.00  0.00    +0.000 C 
ATOM      3  C3  UNL A   1      24.187  41.101  53.228  1.00  0.00    +0.000 C 
ATOM     18  N4  UNL A   1      22.856  40.810  53.252  1.00  0.00    +0.000 N 
ATOM     19  N5  UNL A   1      22.270  41.530  52.300  1.00  0.00    +0.000 N 
ATOM     20  N6  UNL A   1      23.241  42.162  51.599  1.00  0.00    +0.000 N 
BRANCH    2    1
ATOM      1  C1  UNL A   1      25.672  42.834  51.982  1.00  0.00    +0.000 C 
ATOM    102  H1  UNL A   1      26.494  42.183  51.765  1.00  0.00    +0.000 H 
ATOM    103  H2  UNL A   1      25.901  43.421  52.846  1.00  0.00    +0.000 H 
ATOM    104  H3  UNL A   1      25.499  43.481  51.147  1.00  0.00    +0.000 H 
ENDBRANCH    2    1
BRANCH    3    4
ATOM      4  C4  UNL A   1      25.114  40.548  54.209  1.00  0.00    +0.000 C 
ATOM      5  N1  UNL A   1      25.916  39.516  53.925  1.00  0.00    +0.000 N 
ATOM      6  N2  UNL A   1      26.465  39.180  55.113  1.00  0.00    +0.000 N 
ATOM     13  C11 UNL A   1      26.050  40.015  56.125  1.00  0.00    +0.000 C 
ATOM     14  C12 UNL A   1      25.211  40.958  55.559  1.00  0.00    +0.000 C 
ATOM    110  H9  UNL A   1      26.316  39.951  57.120  1.00  0.00    +0.000 H 
BRANCH    6    7
ATOM      7  C5  UNL A   1      27.333  38.071  55.224  1.00  0.00    +0.000 C 
ATOM      8  C6  UNL A   1      27.865  37.501  54.061  1.00  0.00    +0.000 C 
ATOM      9  C7  UNL A   1      28.749  36.426  54.160  1.00  0.00    +0.000 C 
ATOM    105  H4  UNL A   1      27.605  37.874  53.135  1.00  0.00    +0.000 H 
ATOM     11  C9  UNL A   1      28.499  36.434  56.565  1.00  0.00    +0.000 C 
ATOM     12  C10 UNL A   1      27.656  37.545  56.481  1.00  0.00    +0.000 C 
ATOM    109  H8  UNL A   1      27.274  37.974  57.339  1.00  0.00    +0.000 H 
ATOM     10  C8  UNL A   1      29.056  35.886  55.409  1.00  0.00    +0.000 C 
ATOM    106  H5  UNL A   1      29.177  36.030  53.308  1.00  0.00    +0.000 H 
ATOM    108  H7  UNL A   1      28.710  36.018  57.486  1.00  0.00    +0.000 H 
ATOM    107  H6  UNL A   1      29.696  35.080  55.479  1.00  0.00    +0.000 H 
ENDBRANCH    6    7
BRANCH   14   15
ATOM    111  H10 UNL A   1      23.596  42.131  56.357  1.00  0.00    +0.000 H 
ATOM     15  C13 UNL A   1      24.621  42.063  56.269  1.00  0.00    +0.000 C 
BRANCH   15   16
ATOM     16  N3  UNL A   1      25.375  42.971  56.798  1.00  0.00    +0.000 N 
BRANCH   16   17
ATOM     17  O1  UNL A   1      25.355  42.831  58.191  1.00  0.00    +0.000 O 
ATOM    112  H11 UNL A   1      24.558  42.965  58.665  1.00  0.00    +0.000 H 
ENDBRANCH   16   17
ENDBRANCH   15   16
ENDBRANCH   14   15
ENDBRANCH    3    4
ENDBRANCH   21   20
ENDBRANCH   25   24
ENDBRANCH   27   25
ENDBRANCH   28   27
ENDBRANCH   29   28
ENDBRANCH   30   29
ENDBRANCH   31   30
ENDBRANCH   32   31
ENDBRANCH   33   32
ENDBRANCH   34   33
ENDBRANCH   35   34
ENDBRANCH   37   35
ENDBRANCH   41   40
BRANCH   45   46
ATOM     46  C34 UNL A   1      21.111  33.778  45.068  1.00  0.00    +0.000 C 
ATOM     47  C35 UNL A   1      20.166  33.190  44.198  1.00  0.00    +0.000 C 
ATOM     48  F1  UNL A   1      19.495  33.939  43.310  1.00  0.00    +0.000 F 
ATOM     49  C36 UNL A   1      19.811  31.841  44.290  1.00  0.00    +0.000 C 
ATOM     50  F2  UNL A   1      18.809  31.362  43.539  1.00  0.00    +0.000 F 
ATOM     51  C37 UNL A   1      20.432  31.014  45.206  1.00  0.00    +0.000 C 
ATOM     52  F3  UNL A   1      20.047  29.738  45.345  1.00  0.00    +0.000 F 
ATOM     53  C38 UNL A   1      21.423  31.529  46.014  1.00  0.00    +0.000 C 
ATOM     54  F4  UNL A   1      22.027  30.745  46.919  1.00  0.00    +0.000 F 
ATOM     55  C39 UNL A   1      21.742  32.887  45.963  1.00  0.00    +0.000 C 
ATOM     56  F5  UNL A   1      22.607  33.302  46.893  1.00  0.00    +0.000 F 
ENDBRANCH   45   46
BRANCH   62   63
ATOM     65  F6  UNL A   1      20.759  39.473  48.850  1.00  0.00    +0.000 F 
ATOM     66  C47 UNL A   1      19.086  40.678  49.963  1.00  0.00    +0.000 C 
ATOM     67  F7  UNL A   1      19.837  41.785  49.884  1.00  0.00    +0.000 F 
ATOM     68  C48 UNL A   1      17.815  40.744  50.511  1.00  0.00    +0.000 C 
ATOM     69  F8  UNL A   1      17.332  41.914  50.953  1.00  0.00    +0.000 F 
ATOM     70  C49 UNL A   1      17.032  39.602  50.575  1.00  0.00    +0.000 C 
ATOM     71  F9  UNL A   1      15.784  39.671  51.056  1.00  0.00    +0.000 F 
ATOM     72  C50 UNL A   1      17.531  38.386  50.119  1.00  0.00    +0.000 C 
ATOM     73  F10 UNL A   1      16.741  37.302  50.178  1.00  0.00    +0.000 F 
ATOM     63  C45 UNL A   1      18.813  38.290  49.561  1.00  0.00    +0.000 C 
ATOM     64  C46 UNL A   1      19.570  39.469  49.467  1.00  0.00    +0.000 C 
ENDBRANCH   62   63
BRANCH   77   78
ATOM     78  C54 UNL A   1      23.534  35.756  52.860  1.00  0.00    +0.000 C 
ATOM     79  C55 UNL A   1      24.715  35.006  52.748  1.00  0.00    +0.000 C 
ATOM     80  F11 UNL A   1      25.185  34.668  51.539  1.00  0.00    +0.000 F 
ATOM     81  C56 UNL A   1      25.463  34.649  53.873  1.00  0.00    +0.000 C 
ATOM     82  F12 UNL A   1      26.616  33.983  53.725  1.00  0.00    +0.000 F 
ATOM     83  C57 UNL A   1      25.046  35.024  55.141  1.00  0.00    +0.000 C 
ATOM     84  F13 UNL A   1      25.793  34.728  56.215  1.00  0.00    +0.000 F 
ATOM     85  C58 UNL A   1      23.874  35.742  55.287  1.00  0.00    +0.000 C 
ATOM     86  F14 UNL A   1      23.478  36.140  56.505  1.00  0.00    +0.000 F 
ATOM     87  C59 UNL A   1      23.133  36.108  54.164  1.00  0.00    +0.000 C 
ATOM     88  F15 UNL A   1      22.063  36.890  54.367  1.00  0.00    +0.000 F 
ENDBRANCH   77   78
TORSDOF 22
ENDMDL
MODEL 3
REMARK VINA RESULT:     -10.2     25.301     34.075
ROOT
ATOM    131  H30 UNL A   1      43.772  25.791  31.477  1.00  0.00    +0.000 H 
ATOM    132  H31 UNL A   1      46.308  26.003  32.257  1.00  0.00    +0.000 H 
ATOM    133  H32 UNL A   1      46.165  24.045  28.730  1.00  0.00    +0.000 H 
ATOM    134  H33 UNL A   1      49.778  30.879  26.196  1.00  0.00    +0.000 H 
ATOM    135  H34 UNL A   1      47.741  31.881  27.352  1.00  0.00    +0.000 H 
ATOM    136  H35 UNL A   1      47.372  27.748  27.599  1.00  0.00    +0.000 H 
ATOM    137  H36 UNL A   1      48.433  25.565  25.295  1.00  0.00    +0.000 H 
ATOM    138  H37 UNL A   1      47.477  24.302  27.329  1.00  0.00    +0.000 H 
ATOM    139  H38 UNL A   1      42.183  27.160  26.663  1.00  0.00    +0.000 H 
ATOM    140  H39 UNL A   1      43.366  29.362  26.064  1.00  0.00    +0.000 H 
ATOM     41  C30 UNL A   1      45.628  29.936  27.740  1.00  0.00    +0.000 C 
ATOM     42  C31 UNL A   1      44.734  28.734  27.764  1.00  0.00    +0.000 C 
ATOM     43  N9  UNL A   1      44.757  27.726  28.578  1.00  0.00    +0.000 N 
ATOM     44  C32 UNL A   1      43.806  26.820  28.102  1.00  0.00    +0.000 C 
ATOM     45  C33 UNL A   1      43.859  25.494  28.411  1.00  0.00    +0.000 C 
ATOM     57  C40 UNL A   1      44.666  25.256  29.577  1.00  0.00    +0.000 C 
ATOM     58  C41 UNL A   1      44.615  25.624  30.905  1.00  0.00    +0.000 C 
ATOM     59  C42 UNL A   1      45.976  25.727  31.320  1.00  0.00    +0.000 C 
ATOM     60  C43 UNL A   1      46.778  25.385  30.229  1.00  0.00    +0.000 C 
ATOM     61  N10 UNL A   1      45.922  24.748  29.376  1.00  0.00    +0.000 N 
ATOM     62  C44 UNL A   1      48.137  25.721  29.879  1.00  0.00    +0.000 C 
ATOM     74  C51 UNL A   1      48.647  25.659  28.615  1.00  0.00    +0.000 C 
ATOM     75  N11 UNL A   1      49.666  26.513  28.226  1.00  0.00    +0.000 N 
ATOM     76  C52 UNL A   1      49.471  26.702  26.951  1.00  0.00    +0.000 C 
ATOM     77  C53 UNL A   1      49.777  27.970  26.252  1.00  0.00    +0.000 C 
ATOM     89  C60 UNL A   1      48.917  28.907  26.715  1.00  0.00    +0.000 C 
ATOM     90  C61 UNL A   1      49.002  30.347  26.620  1.00  0.00    +0.000 C 
ATOM     91  C62 UNL A   1      47.898  30.875  27.180  1.00  0.00    +0.000 C 
ATOM     92  C63 UNL A   1      46.954  29.804  27.508  1.00  0.00    +0.000 C 
ATOM     93  N12 UNL A   1      47.679  28.644  27.330  1.00  0.00    +0.000 N 
ATOM     94  C64 UNL A   1      48.616  25.725  26.298  1.00  0.00    +0.000 C 
ATOM     95  C65 UNL A   1      48.134  25.096  27.373  1.00  0.00    +0.000 C 
ATOM     96  C66 UNL A   1      43.051  27.514  27.094  1.00  0.00    +0.000 C 
ATOM     97  C67 UNL A   1      43.627  28.678  26.790  1.00  0.00    +0.000 C 
ENDROOT
BRANCH   41   40
ATOM    129  H28 UNL A   1      44.082  33.600  25.449  1.00  0.00    +0.000 H 
ATOM     98  C68 UNL A   1      44.719  31.958  28.844  1.00  0.00    +0.000 C 
ATOM     99  C69 UNL A   1      44.196  33.233  28.787  1.00  0.00    +0.000 C 
ATOM    130  H29 UNL A   1      44.832  31.286  25.552  1.00  0.00    +0.000 H 
ATOM     37  C26 UNL A   1      44.055  33.854  27.548  1.00  0.00    +0.000 C 
ATOM     38  C27 UNL A   1      44.257  33.148  26.360  1.00  0.00    +0.000 C 
ATOM     39  C28 UNL A   1      44.697  31.828  26.420  1.00  0.00    +0.000 C 
ATOM     40  C29 UNL A   1      44.954  31.240  27.665  1.00  0.00    +0.000 C 
ATOM    141  H40 UNL A   1      44.936  31.532  29.759  1.00  0.00    +0.000 H 
ATOM    142  H41 UNL A   1      43.914  33.721  29.652  1.00  0.00    +0.000 H 
BRANCH   37   35
ATOM     35  C25 UNL A   1      43.744  35.295  27.500  1.00  0.00    +0.000 C 
ATOM     36  O3  UNL A   1      44.620  36.108  27.277  1.00  0.00    +0.000 O 
BRANCH   35   34
ATOM     34  N8  UNL A   1      42.442  35.695  27.736  1.00  0.00    +0.000 N 
ATOM    128  H27 UNL A   1      41.943  36.048  26.965  1.00  0.00    +0.000 H 
BRANCH   34   33
ATOM     33  C24 UNL A   1      41.730  35.646  29.010  1.00  0.00    +0.000 C 
ATOM    126  H25 UNL A   1      42.211  34.935  29.649  1.00  0.00    +0.000 H 
ATOM    127  H26 UNL A   1      41.752  36.623  29.444  1.00  0.00    +0.000 H 
BRANCH   33   32
ATOM    124  H23 UNL A   1      39.659  36.101  28.967  1.00  0.00    +0.000 H 
ATOM    125  H24 UNL A   1      40.188  34.837  27.832  1.00  0.00    +0.000 H 
ATOM     32  C23 UNL A   1      40.275  35.238  28.820  1.00  0.00    +0.000 C 
BRANCH   32   31
ATOM    122  H21 UNL A   1      39.313  33.387  29.219  1.00  0.00    +0.000 H 
ATOM    123  H22 UNL A   1      40.694  33.800  30.288  1.00  0.00    +0.000 H 
ATOM     31  C22 UNL A   1      39.811  34.142  29.791  1.00  0.00    +0.000 C 
BRANCH   31   30
ATOM    121  H20 UNL A   1      38.772  35.659  30.805  1.00  0.00    +0.000 H 
ATOM     30  C21 UNL A   1      38.854  34.597  30.905  1.00  0.00    +0.000 C 
ATOM    120  H19 UNL A   1      39.266  34.282  31.841  1.00  0.00    +0.000 H 
BRANCH   30   29
ATOM     29  C20 UNL A   1      37.420  34.053  30.811  1.00  0.00    +0.000 C 
ATOM    118  H17 UNL A   1      37.376  33.126  31.344  1.00  0.00    +0.000 H 
ATOM    119  H18 UNL A   1      36.775  34.796  31.231  1.00  0.00    +0.000 H 
BRANCH   29   28
ATOM    116  H15 UNL A   1      36.501  34.702  28.993  1.00  0.00    +0.000 H 
ATOM     28  C19 UNL A   1      36.948  33.808  29.375  1.00  0.00    +0.000 C 
ATOM    117  H16 UNL A   1      37.789  33.536  28.772  1.00  0.00    +0.000 H 
BRANCH   28   27
ATOM     27  N7  UNL A   1      35.975  32.734  29.343  1.00  0.00    +0.000 N 
ATOM    115  H14 UNL A   1      36.273  31.930  29.826  1.00  0.00    +0.000 H 
BRANCH   27   25
ATOM     25  C18 UNL A   1      34.732  32.597  28.785  1.00  0.00    +0.000 C 
ATOM     26  O2  UNL A   1      33.909  33.480  29.037  1.00  0.00    +0.000 O 
BRANCH   25   24
ATOM    100  C70 UNL A   1      33.077  31.317  27.302  1.00  0.00    +0.000 C 
ATOM    101  C71 UNL A   1      32.823  30.236  26.448  1.00  0.00    +0.000 C 
ATOM    143  H42 UNL A   1      32.352  32.038  27.440  1.00  0.00    +0.000 H 
ATOM    144  H43 UNL A   1      31.950  30.203  25.900  1.00  0.00    +0.000 H 
ATOM    113  H12 UNL A   1      35.565  28.414  27.103  1.00  0.00    +0.000 H 
ATOM    114  H13 UNL A   1      36.087  30.388  28.415  1.00  0.00    +0.000 H 
ATOM     21  C14 UNL A   1      33.758  29.199  26.340  1.00  0.00    +0.000 C 
ATOM     22  C15 UNL A   1      34.920  29.220  27.109  1.00  0.00    +0.000 C 
ATOM     23  C16 UNL A   1      35.201  30.347  27.887  1.00  0.00    +0.000 C 
ATOM     24  C17 UNL A   1      34.301  31.426  27.966  1.00  0.00    +0.000 C 
BRANCH   21   20
ATOM      2  C2  UNL A   1      32.778  26.960  25.727  1.00  0.00    +0.000 C 
ATOM      3  C3  UNL A   1      33.076  26.164  24.640  1.00  0.00    +0.000 C 
ATOM     18  N4  UNL A   1      33.833  26.854  23.741  1.00  0.00    +0.000 N 
ATOM     19  N5  UNL A   1      34.024  28.075  24.230  1.00  0.00    +0.000 N 
ATOM     20  N6  UNL A   1      33.509  28.108  25.482  1.00  0.00    +0.000 N 
BRANCH    2    1
ATOM      1  C1  UNL A   1      31.803  26.769  26.826  1.00  0.00    +0.000 C 
ATOM    102  H1  UNL A   1      30.816  26.982  26.468  1.00  0.00    +0.000 H 
ATOM    103  H2  UNL A   1      32.039  27.431  27.632  1.00  0.00    +0.000 H 
ATOM    104  H3  UNL A   1      31.847  25.757  27.170  1.00  0.00    +0.000 H 
ENDBRANCH    2    1
BRANCH    3    4
ATOM      4  C4  UNL A   1      32.604  24.811  24.372  1.00  0.00    +0.000 C 
ATOM      5  N1  UNL A   1      33.302  23.729  24.738  1.00  0.00    +0.000 N 
ATOM      6  N2  UNL A   1      32.651  22.697  24.156  1.00  0.00    +0.000 N 
ATOM     13  C11 UNL A   1      31.535  23.116  23.470  1.00  0.00    +0.000 C 
ATOM     14  C12 UNL A   1      31.440  24.485  23.639  1.00  0.00    +0.000 C 
ATOM    110  H9  UNL A   1      30.888  22.519  22.931  1.00  0.00    +0.000 H 
BRANCH    6    7
ATOM      7  C5  UNL A   1      33.142  21.376  24.265  1.00  0.00    +0.000 C 
ATOM      8  C6  UNL A   1      34.452  21.168  24.712  1.00  0.00    +0.000 C 
ATOM      9  C7  UNL A   1      34.935  19.868  24.855  1.00  0.00    +0.000 C 
ATOM    105  H4  UNL A   1      35.057  21.974  24.935  1.00  0.00    +0.000 H 
ATOM     11  C9  UNL A   1      32.841  18.991  24.023  1.00  0.00    +0.000 C 
ATOM     12  C10 UNL A   1      32.328  20.287  23.928  1.00  0.00    +0.000 C 
ATOM    109  H8  UNL A   1      31.357  20.440  23.612  1.00  0.00    +0.000 H 
ATOM     10  C8  UNL A   1      34.135  18.782  24.500  1.00  0.00    +0.000 C 
ATOM    106  H5  UNL A   1      35.886  19.708  25.225  1.00  0.00    +0.000 H 
ATOM    108  H7  UNL A   1      32.260  18.187  23.739  1.00  0.00    +0.000 H 
ATOM    107  H6  UNL A   1      34.501  17.821  24.590  1.00  0.00    +0.000 H 
ENDBRANCH    6    7
BRANCH   14   15
ATOM    111  H10 UNL A   1      30.204  25.377  22.123  1.00  0.00    +0.000 H 
ATOM     15  C13 UNL A   1      30.363  25.301  23.139  1.00  0.00    +0.000 C 
BRANCH   15   16
ATOM     16  N3  UNL A   1      29.596  25.937  23.962  1.00  0.00    +0.000 N 
BRANCH   16   17
ATOM     17  O1  UNL A   1      29.797  27.314  23.807  1.00  0.00    +0.000 O 
ATOM    112  H11 UNL A   1      29.870  27.684  22.950  1.00  0.00    +0.000 H 
ENDBRANCH   16   17
ENDBRANCH   15   16
ENDBRANCH   14   15
ENDBRANCH    3    4
ENDBRANCH   21   20
ENDBRANCH   25   24
ENDBRANCH   27   25
ENDBRANCH   28   27
ENDBRANCH   29   28
ENDBRANCH   30   29
ENDBRANCH   31   30
ENDBRANCH   32   31
ENDBRANCH   33   32
ENDBRANCH   34   33
ENDBRANCH   35   34
ENDBRANCH   37   35
ENDBRANCH   41   40
BRANCH   45   46
ATOM     46  C34 UNL A   1      43.521  24.373  27.444  1.00  0.00    +0.000 C 
ATOM     47  C35 UNL A   1      42.779  23.265  27.910  1.00  0.00    +0.000 C 
ATOM     48  F1  UNL A   1      42.130  23.321  29.084  1.00  0.00    +0.000 F 
ATOM     49  C36 UNL A   1      42.771  22.040  27.237  1.00  0.00    +0.000 C 
ATOM     50  F2  UNL A   1      42.169  20.978  27.790  1.00  0.00    +0.000 F 
ATOM     51  C37 UNL A   1      43.447  21.894  26.041  1.00  0.00    +0.000 C 
ATOM     52  F3  UNL A   1      43.500  20.704  25.427  1.00  0.00    +0.000 F 
ATOM     53  C38 UNL A   1      44.111  22.977  25.507  1.00  0.00    +0.000 C 
ATOM     54  F4  UNL A   1      44.784  22.852  24.354  1.00  0.00    +0.000 F 
ATOM     55  C39 UNL A   1      44.166  24.186  26.203  1.00  0.00    +0.000 C 
ATOM     56  F5  UNL A   1      44.961  25.116  25.664  1.00  0.00    +0.000 F 
ENDBRANCH   45   46
BRANCH   62   63
ATOM     65  F6  UNL A   1      47.913  28.555  30.590  1.00  0.00    +0.000 F 
ATOM     66  C47 UNL A   1      49.552  28.380  32.255  1.00  0.00    +0.000 C 
ATOM     67  F7  UNL A   1      49.416  29.687  32.520  1.00  0.00    +0.000 F 
ATOM     68  C48 UNL A   1      50.411  27.607  33.021  1.00  0.00    +0.000 C 
ATOM     69  F8  UNL A   1      51.098  28.162  34.029  1.00  0.00    +0.000 F 
ATOM     70  C49 UNL A   1      50.537  26.252  32.758  1.00  0.00    +0.000 C 
ATOM     71  F9  UNL A   1      51.326  25.490  33.528  1.00  0.00    +0.000 F 
ATOM     72  C50 UNL A   1      49.826  25.674  31.711  1.00  0.00    +0.000 C 
ATOM     73  F10 UNL A   1      49.956  24.355  31.494  1.00  0.00    +0.000 F 
ATOM     63  C45 UNL A   1      48.952  26.432  30.920  1.00  0.00    +0.000 C 
ATOM     64  C46 UNL A   1      48.808  27.793  31.234  1.00  0.00    +0.000 C 
ENDBRANCH   62   63
BRANCH   77   78
ATOM     78  C54 UNL A   1      50.691  28.056  25.095  1.00  0.00    +0.000 C 
ATOM     79  C55 UNL A   1      50.229  27.862  23.785  1.00  0.00    +0.000 C 
ATOM     80  F11 UNL A   1      48.985  27.411  23.569  1.00  0.00    +0.000 F 
ATOM     81  C56 UNL A   1      51.016  28.188  22.676  1.00  0.00    +0.000 C 
ATOM     82  F12 UNL A   1      50.520  28.045  21.440  1.00  0.00    +0.000 F 
ATOM     83  C57 UNL A   1      52.289  28.710  22.849  1.00  0.00    +0.000 C 
ATOM     84  F13 UNL A   1      53.021  29.074  21.787  1.00  0.00    +0.000 F 
ATOM     85  C58 UNL A   1      52.782  28.891  24.127  1.00  0.00    +0.000 C 
ATOM     86  F14 UNL A   1      53.998  29.426  24.308  1.00  0.00    +0.000 F 
ATOM     87  C59 UNL A   1      51.994  28.574  25.233  1.00  0.00    +0.000 C 
ATOM     88  F15 UNL A   1      52.492  28.868  26.443  1.00  0.00    +0.000 F 
ENDBRANCH   77   78
TORSDOF 22
ENDMDL
MODEL 4
REMARK VINA RESULT:     -10.2     42.817     49.056
ROOT
ATOM    131  H30 UNL A   1      19.492  37.556  44.329  1.00  0.00    +0.000 H 
ATOM    132  H31 UNL A   1      18.414  38.561  46.545  1.00  0.00    +0.000 H 
ATOM    133  H32 UNL A   1      19.353  34.686  47.169  1.00  0.00    +0.000 H 
ATOM    134  H33 UNL A   1      24.795  38.089  52.168  1.00  0.00    +0.000 H 
ATOM    135  H34 UNL A   1      25.336  39.358  50.026  1.00  0.00    +0.000 H 
ATOM    136  H35 UNL A   1      22.359  36.610  49.095  1.00  0.00    +0.000 H 
ATOM    137  H36 UNL A   1      22.004  33.588  50.489  1.00  0.00    +0.000 H 
ATOM    138  H37 UNL A   1      20.067  34.032  48.846  1.00  0.00    +0.000 H 
ATOM    139  H38 UNL A   1      24.029  34.911  44.355  1.00  0.00    +0.000 H 
ATOM    140  H39 UNL A   1      25.636  36.164  45.922  1.00  0.00    +0.000 H 
ATOM     41  C30 UNL A   1      24.312  38.022  47.667  1.00  0.00    +0.000 C 
ATOM     42  C31 UNL A   1      23.702  37.094  46.661  1.00  0.00    +0.000 C 
ATOM     43  N9  UNL A   1      22.455  36.971  46.328  1.00  0.00    +0.000 N 
ATOM     44  C32 UNL A   1      22.394  35.889  45.447  1.00  0.00    +0.000 C 
ATOM     45  C33 UNL A   1      21.242  35.191  45.246  1.00  0.00    +0.000 C 
ATOM     57  C40 UNL A   1      20.089  35.946  45.652  1.00  0.00    +0.000 C 
ATOM     58  C41 UNL A   1      19.504  37.137  45.272  1.00  0.00    +0.000 C 
ATOM     59  C42 UNL A   1      18.920  37.666  46.461  1.00  0.00    +0.000 C 
ATOM     60  C43 UNL A   1      19.155  36.754  47.492  1.00  0.00    +0.000 C 
ATOM     61  N10 UNL A   1      19.501  35.603  46.841  1.00  0.00    +0.000 N 
ATOM     62  C44 UNL A   1      19.232  36.904  48.925  1.00  0.00    +0.000 C 
ATOM     74  C51 UNL A   1      19.861  36.028  49.761  1.00  0.00    +0.000 C 
ATOM     75  N11 UNL A   1      20.425  36.471  50.946  1.00  0.00    +0.000 N 
ATOM     76  C52 UNL A   1      21.440  35.677  51.145  1.00  0.00    +0.000 C 
ATOM     77  C53 UNL A   1      22.702  36.103  51.791  1.00  0.00    +0.000 C 
ATOM     89  C60 UNL A   1      23.309  36.978  50.958  1.00  0.00    +0.000 C 
ATOM     90  C61 UNL A   1      24.365  37.924  51.244  1.00  0.00    +0.000 C 
ATOM     91  C62 UNL A   1      24.691  38.555  50.101  1.00  0.00    +0.000 C 
ATOM     92  C63 UNL A   1      23.990  37.927  48.977  1.00  0.00    +0.000 C 
ATOM     93  N12 UNL A   1      23.078  37.080  49.575  1.00  0.00    +0.000 N 
ATOM     94  C64 UNL A   1      21.416  34.431  50.397  1.00  0.00    +0.000 C 
ATOM     95  C65 UNL A   1      20.413  34.695  49.557  1.00  0.00    +0.000 C 
ATOM     96  C66 UNL A   1      23.752  35.567  45.101  1.00  0.00    +0.000 C 
ATOM     97  C67 UNL A   1      24.607  36.232  45.879  1.00  0.00    +0.000 C 
ENDROOT
BRANCH   41   40
ATOM    129  H28 UNL A   1      26.326  41.147  44.976  1.00  0.00    +0.000 H 
ATOM     98  C68 UNL A   1      26.760  38.394  47.595  1.00  0.00    +0.000 C 
ATOM     99  C69 UNL A   1      27.870  39.031  47.083  1.00  0.00    +0.000 C 
ATOM    130  H29 UNL A   1      24.365  40.147  46.015  1.00  0.00    +0.000 H 
ATOM     37  C26 UNL A   1      27.705  39.967  46.064  1.00  0.00    +0.000 C 
ATOM     38  C27 UNL A   1      26.433  40.403  45.684  1.00  0.00    +0.000 C 
ATOM     39  C28 UNL A   1      25.311  39.822  46.270  1.00  0.00    +0.000 C 
ATOM     40  C29 UNL A   1      25.475  38.796  47.209  1.00  0.00    +0.000 C 
ATOM    141  H40 UNL A   1      26.877  37.617  48.266  1.00  0.00    +0.000 H 
ATOM    142  H41 UNL A   1      28.810  38.818  47.449  1.00  0.00    +0.000 H 
BRANCH   37   35
ATOM     35  C25 UNL A   1      28.893  40.457  45.341  1.00  0.00    +0.000 C 
ATOM     36  O3  UNL A   1      28.787  41.324  44.496  1.00  0.00    +0.000 O 
BRANCH   35   34
ATOM     34  N8  UNL A   1      30.120  39.891  45.634  1.00  0.00    +0.000 N 
ATOM    128  H27 UNL A   1      30.791  40.480  46.046  1.00  0.00    +0.000 H 
BRANCH   34   33
ATOM     33  C24 UNL A   1      30.522  38.507  45.396  1.00  0.00    +0.000 C 
ATOM    126  H25 UNL A   1      31.590  38.447  45.421  1.00  0.00    +0.000 H 
ATOM    127  H26 UNL A   1      30.088  37.895  46.159  1.00  0.00    +0.000 H 
BRANCH   33   32
ATOM    124  H23 UNL A   1      29.397  37.160  44.206  1.00  0.00    +0.000 H 
ATOM    125  H24 UNL A   1      29.510  38.821  43.580  1.00  0.00    +0.000 H 
ATOM     32  C23 UNL A   1      30.029  38.008  44.044  1.00  0.00    +0.000 C 
BRANCH   32   31
ATOM    122  H21 UNL A   1      31.440  38.456  42.520  1.00  0.00    +0.000 H 
ATOM    123  H22 UNL A   1      31.941  37.211  43.713  1.00  0.00    +0.000 H 
ATOM     31  C22 UNL A   1      31.159  37.594  43.090  1.00  0.00    +0.000 C 
BRANCH   31   30
ATOM    121  H20 UNL A   1      31.381  36.676  41.215  1.00  0.00    +0.000 H 
ATOM     30  C21 UNL A   1      30.822  36.465  42.103  1.00  0.00    +0.000 C 
ATOM    120  H19 UNL A   1      29.762  36.461  41.957  1.00  0.00    +0.000 H 
BRANCH   30   29
ATOM     29  C20 UNL A   1      31.243  35.054  42.541  1.00  0.00    +0.000 C 
ATOM    118  H17 UNL A   1      31.971  34.688  41.847  1.00  0.00    +0.000 H 
ATOM    119  H18 UNL A   1      31.633  35.137  43.534  1.00  0.00    +0.000 H 
BRANCH   29   28
ATOM    116  H15 UNL A   1      29.894  33.678  41.614  1.00  0.00    +0.000 H 
ATOM     28  C19 UNL A   1      30.083  34.055  42.598  1.00  0.00    +0.000 C 
ATOM    117  H16 UNL A   1      30.347  33.250  43.252  1.00  0.00    +0.000 H 
BRANCH   28   27
ATOM     27  N7  UNL A   1      28.889  34.703  43.100  1.00  0.00    +0.000 N 
ATOM    115  H14 UNL A   1      28.873  35.672  42.926  1.00  0.00    +0.000 H 
BRANCH   27   25
ATOM     25  C18 UNL A   1      27.777  34.258  43.766  1.00  0.00    +0.000 C 
ATOM     26  O2  UNL A   1      26.685  34.492  43.243  1.00  0.00    +0.000 O 
BRANCH   25   24
ATOM    100  C70 UNL A   1      26.687  33.098  45.778  1.00  0.00    +0.000 C 
ATOM    101  C71 UNL A   1      26.834  32.361  46.959  1.00  0.00    +0.000 C 
ATOM    143  H42 UNL A   1      25.742  33.283  45.407  1.00  0.00    +0.000 H 
ATOM    144  H43 UNL A   1      26.010  31.938  47.412  1.00  0.00    +0.000 H 
ATOM    113  H12 UNL A   1      30.136  32.767  47.403  1.00  0.00    +0.000 H 
ATOM    114  H13 UNL A   1      29.897  33.861  45.250  1.00  0.00    +0.000 H 
ATOM     21  C14 UNL A   1      28.105  32.200  47.526  1.00  0.00    +0.000 C 
ATOM     22  C15 UNL A   1      29.215  32.805  46.939  1.00  0.00    +0.000 C 
ATOM     23  C16 UNL A   1      29.066  33.460  45.713  1.00  0.00    +0.000 C 
ATOM     24  C17 UNL A   1      27.806  33.585  45.098  1.00  0.00    +0.000 C 
BRANCH   21   20
ATOM      2  C2  UNL A   1      27.908  30.148  48.974  1.00  0.00    +0.000 C 
ATOM      3  C3  UNL A   1      28.073  30.045  50.340  1.00  0.00    +0.000 C 
ATOM     18  N4  UNL A   1      28.621  31.190  50.838  1.00  0.00    +0.000 N 
ATOM     19  N5  UNL A   1      28.809  32.022  49.818  1.00  0.00    +0.000 N 
ATOM     20  N6  UNL A   1      28.261  31.459  48.715  1.00  0.00    +0.000 N 
BRANCH    2    1
ATOM      1  C1  UNL A   1      27.597  29.115  47.958  1.00  0.00    +0.000 C 
ATOM    102  H1  UNL A   1      28.316  28.323  48.024  1.00  0.00    +0.000 H 
ATOM    103  H2  UNL A   1      27.636  29.551  46.982  1.00  0.00    +0.000 H 
ATOM    104  H3  UNL A   1      26.617  28.724  48.135  1.00  0.00    +0.000 H 
ENDBRANCH    2    1
BRANCH    3    4
ATOM      4  C4  UNL A   1      27.821  28.882  51.182  1.00  0.00    +0.000 C 
ATOM      5  N1  UNL A   1      26.713  28.769  51.925  1.00  0.00    +0.000 N 
ATOM      6  N2  UNL A   1      26.932  27.679  52.691  1.00  0.00    +0.000 N 
ATOM     13  C11 UNL A   1      28.141  27.085  52.407  1.00  0.00    +0.000 C 
ATOM     14  C12 UNL A   1      28.722  27.811  51.384  1.00  0.00    +0.000 C 
ATOM    110  H9  UNL A   1      28.538  26.253  52.869  1.00  0.00    +0.000 H 
BRANCH    6    7
ATOM      7  C5  UNL A   1      25.992  27.276  53.667  1.00  0.00    +0.000 C 
ATOM      8  C6  UNL A   1      25.956  25.936  54.070  1.00  0.00    +0.000 C 
ATOM      9  C7  UNL A   1      25.055  25.535  55.055  1.00  0.00    +0.000 C 
ATOM    105  H4  UNL A   1      26.594  25.249  53.640  1.00  0.00    +0.000 H 
ATOM     11  C9  UNL A   1      24.169  27.781  55.169  1.00  0.00    +0.000 C 
ATOM     12  C10 UNL A   1      25.104  28.206  54.223  1.00  0.00    +0.000 C 
ATOM    109  H8  UNL A   1      25.140  29.197  53.935  1.00  0.00    +0.000 H 
ATOM     10  C8  UNL A   1      24.155  26.453  55.596  1.00  0.00    +0.000 C 
ATOM    106  H5  UNL A   1      25.054  24.556  55.387  1.00  0.00    +0.000 H 
ATOM    108  H7  UNL A   1      23.486  28.453  55.554  1.00  0.00    +0.000 H 
ATOM    107  H6  UNL A   1      23.477  26.149  56.312  1.00  0.00    +0.000 H 
ENDBRANCH    6    7
BRANCH   14   15
ATOM    111  H10 UNL A   1      29.962  27.061  49.796  1.00  0.00    +0.000 H 
ATOM     15  C13 UNL A   1      29.966  27.473  50.741  1.00  0.00    +0.000 C 
BRANCH   15   16
ATOM     16  N3  UNL A   1      31.088  27.684  51.348  1.00  0.00    +0.000 N 
BRANCH   16   17
ATOM     17  O1  UNL A   1      32.036  26.758  50.896  1.00  0.00    +0.000 O 
ATOM    112  H11 UNL A   1      31.758  25.968  50.477  1.00  0.00    +0.000 H 
ENDBRANCH   16   17
ENDBRANCH   15   16
ENDBRANCH   14   15
ENDBRANCH    3    4
ENDBRANCH   21   20
ENDBRANCH   25   24
ENDBRANCH   27   25
ENDBRANCH   28   27
ENDBRANCH   29   28
ENDBRANCH   30   29
ENDBRANCH   31   30
ENDBRANCH   32   31
ENDBRANCH   33   32
ENDBRANCH   34   33
ENDBRANCH   35   34
ENDBRANCH   37   35
ENDBRANCH   41   40
BRANCH   45   46
ATOM     46  C34 UNL A   1      21.171  33.685  45.060  1.00  0.00    +0.000 C 
ATOM     47  C35 UNL A   1      20.207  33.146  44.180  1.00  0.00    +0.000 C 
ATOM     48  F1  UNL A   1      19.565  33.933  43.303  1.00  0.00    +0.000 F 
ATOM     49  C36 UNL A   1      19.801  31.810  44.251  1.00  0.00    +0.000 C 
ATOM     50  F2  UNL A   1      18.784  31.380  43.491  1.00  0.00    +0.000 F 
ATOM     51  C37 UNL A   1      20.390  30.946  45.154  1.00  0.00    +0.000 C 
ATOM     52  F3  UNL A   1      19.957  29.683  45.273  1.00  0.00    +0.000 F 
ATOM     53  C38 UNL A   1      21.397  31.411  45.971  1.00  0.00    +0.000 C 
ATOM     54  F4  UNL A   1      21.971  30.591  46.864  1.00  0.00    +0.000 F 
ATOM     55  C39 UNL A   1      21.767  32.757  45.941  1.00  0.00    +0.000 C 
ATOM     56  F5  UNL A   1      22.646  33.125  46.879  1.00  0.00    +0.000 F 
ENDBRANCH   45   46
BRANCH   62   63
ATOM     65  F6  UNL A   1      20.859  39.341  48.902  1.00  0.00    +0.000 F 
ATOM     66  C47 UNL A   1      19.181  40.602  49.943  1.00  0.00    +0.000 C 
ATOM     67  F7  UNL A   1      19.982  41.677  49.921  1.00  0.00    +0.000 F 
ATOM     68  C48 UNL A   1      17.886  40.717  50.424  1.00  0.00    +0.000 C 
ATOM     69  F8  UNL A   1      17.431  41.901  50.858  1.00  0.00    +0.000 F 
ATOM     70  C49 UNL A   1      17.053  39.609  50.430  1.00  0.00    +0.000 C 
ATOM     71  F9  UNL A   1      15.785  39.726  50.845  1.00  0.00    +0.000 F 
ATOM     72  C50 UNL A   1      17.524  38.379  49.982  1.00  0.00    +0.000 C 
ATOM     73  F10 UNL A   1      16.686  37.329  49.983  1.00  0.00    +0.000 F 
ATOM     63  C45 UNL A   1      18.829  38.234  49.491  1.00  0.00    +0.000 C 
ATOM     64  C46 UNL A   1      19.638  39.380  49.455  1.00  0.00    +0.000 C 
ENDBRANCH   62   63
BRANCH   77   78
ATOM     78  C54 UNL A   1      23.250  35.454  53.001  1.00  0.00    +0.000 C 
ATOM     79  C55 UNL A   1      22.544  35.456  54.213  1.00  0.00    +0.000 C 
ATOM     80  F11 UNL A   1      21.442  36.207  54.349  1.00  0.00    +0.000 F 
ATOM     81  C56 UNL A   1      22.923  34.638  55.281  1.00  0.00    +0.000 C 
ATOM     82  F12 UNL A   1      22.191  34.622  56.403  1.00  0.00    +0.000 F 
ATOM     83  C57 UNL A   1      24.023  33.801  55.168  1.00  0.00    +0.000 C 
ATOM     84  F13 UNL A   1      24.353  32.977  56.172  1.00  0.00    +0.000 F 
ATOM     85  C58 UNL A   1      24.754  33.794  53.995  1.00  0.00    +0.000 C 
ATOM     86  F14 UNL A   1      25.800  32.965  53.861  1.00  0.00    +0.000 F 
ATOM     87  C59 UNL A   1      24.370  34.603  52.926  1.00  0.00    +0.000 C 
ATOM     88  F15 UNL A   1      25.060  34.473  51.783  1.00  0.00    +0.000 F 
ENDBRANCH   77   78
TORSDOF 22
ENDMDL
MODEL 5
REMARK VINA RESULT:     -10.0     43.849     49.989
ROOT
ATOM    131  H30 UNL A   1      19.478  37.601  44.397  1.00  0.00    +0.000 H 
ATOM    132  H31 UNL A   1      18.354  38.570  46.606  1.00  0.00    +0.000 H 
ATOM    133  H32 UNL A   1      19.452  34.739  47.248  1.00  0.00    +0.000 H 
ATOM    134  H33 UNL A   1      24.737  38.386  52.243  1.00  0.00    +0.000 H 
ATOM    135  H34 UNL A   1      25.229  39.667  50.098  1.00  0.00    +0.000 H 
ATOM    136  H35 UNL A   1      22.371  36.795  49.172  1.00  0.00    +0.000 H 
ATOM    137  H36 UNL A   1      22.139  33.767  50.577  1.00  0.00    +0.000 H 
ATOM    138  H37 UNL A   1      20.189  34.122  48.928  1.00  0.00    +0.000 H 
ATOM    139  H38 UNL A   1      24.121  35.148  44.442  1.00  0.00    +0.000 H 
ATOM    140  H39 UNL A   1      25.671  36.472  46.007  1.00  0.00    +0.000 H 
ATOM     41  C30 UNL A   1      24.267  38.281  47.742  1.00  0.00    +0.000 C 
ATOM     42  C31 UNL A   1      23.698  37.325  46.739  1.00  0.00    +0.000 C 
ATOM     43  N9  UNL A   1      22.458  37.148  46.403  1.00  0.00    +0.000 N 
ATOM     44  C32 UNL A   1      22.444  36.061  45.527  1.00  0.00    +0.000 C 
ATOM     45  C33 UNL A   1      21.322  35.315  45.327  1.00  0.00    +0.000 C 
ATOM     57  C40 UNL A   1      20.138  36.024  45.727  1.00  0.00    +0.000 C 
ATOM     58  C41 UNL A   1      19.505  37.187  45.341  1.00  0.00    +0.000 C 
ATOM     59  C42 UNL A   1      18.897  37.696  46.527  1.00  0.00    +0.000 C 
ATOM     60  C43 UNL A   1      19.168  36.799  47.561  1.00  0.00    +0.000 C 
ATOM     61  N10 UNL A   1      19.563  35.661  46.916  1.00  0.00    +0.000 N 
ATOM     62  C44 UNL A   1      19.235  36.958  48.994  1.00  0.00    +0.000 C 
ATOM     74  C51 UNL A   1      19.898  36.112  49.835  1.00  0.00    +0.000 C 
ATOM     75  N11 UNL A   1      20.441  36.583  51.019  1.00  0.00    +0.000 N 
ATOM     76  C52 UNL A   1      21.488  35.832  51.224  1.00  0.00    +0.000 C 
ATOM     77  C53 UNL A   1      22.729  36.313  51.871  1.00  0.00    +0.000 C 
ATOM     89  C60 UNL A   1      23.302  37.209  51.035  1.00  0.00    +0.000 C 
ATOM     90  C61 UNL A   1      24.316  38.200  51.319  1.00  0.00    +0.000 C 
ATOM     91  C62 UNL A   1      24.619  38.839  50.175  1.00  0.00    +0.000 C 
ATOM     92  C63 UNL A   1      23.947  38.178  49.052  1.00  0.00    +0.000 C 
ATOM     93  N12 UNL A   1      23.070  37.296  49.651  1.00  0.00    +0.000 N 
ATOM     94  C64 UNL A   1      21.517  34.584  50.481  1.00  0.00    +0.000 C 
ATOM     95  C65 UNL A   1      20.505  34.802  49.637  1.00  0.00    +0.000 C 
ATOM     96  C66 UNL A   1      23.816  35.795  45.185  1.00  0.00    +0.000 C 
ATOM     97  C67 UNL A   1      24.640  36.498  45.962  1.00  0.00    +0.000 C 
ENDROOT
BRANCH   41   40
ATOM    129  H28 UNL A   1      26.123  41.580  45.147  1.00  0.00    +0.000 H 
ATOM     98  C68 UNL A   1      26.703  38.705  47.601  1.00  0.00    +0.000 C 
ATOM     99  C69 UNL A   1      27.781  39.391  47.083  1.00  0.00    +0.000 C 
ATOM    130  H29 UNL A   1      24.220  40.489  46.202  1.00  0.00    +0.000 H 
ATOM     37  C26 UNL A   1      27.562  40.374  46.121  1.00  0.00    +0.000 C 
ATOM     38  C27 UNL A   1      26.269  40.803  45.810  1.00  0.00    +0.000 C 
ATOM     39  C28 UNL A   1      25.181  40.170  46.405  1.00  0.00    +0.000 C 
ATOM     40  C29 UNL A   1      25.398  39.101  47.283  1.00  0.00    +0.000 C 
ATOM    141  H40 UNL A   1      26.859  37.898  48.226  1.00  0.00    +0.000 H 
ATOM    142  H41 UNL A   1      28.739  39.178  47.403  1.00  0.00    +0.000 H 
BRANCH   37   35
ATOM     35  C25 UNL A   1      28.714  40.924  45.382  1.00  0.00    +0.000 C 
ATOM     36  O3  UNL A   1      28.798  40.784  44.178  1.00  0.00    +0.000 O 
BRANCH   35   34
ATOM     34  N8  UNL A   1      29.698  41.581  46.095  1.00  0.00    +0.000 N 
ATOM    128  H27 UNL A   1      29.459  42.456  46.477  1.00  0.00    +0.000 H 
BRANCH   34   33
ATOM     33  C24 UNL A   1      31.060  41.111  46.341  1.00  0.00    +0.000 C 
ATOM    126  H25 UNL A   1      31.145  40.817  47.366  1.00  0.00    +0.000 H 
ATOM    127  H26 UNL A   1      31.252  40.284  45.690  1.00  0.00    +0.000 H 
BRANCH   33   32
ATOM    124  H23 UNL A   1      32.557  41.978  45.115  1.00  0.00    +0.000 H 
ATOM    125  H24 UNL A   1      31.559  43.130  46.032  1.00  0.00    +0.000 H 
ATOM     32  C23 UNL A   1      32.086  42.198  46.050  1.00  0.00    +0.000 C 
BRANCH   32   31
ATOM    122  H21 UNL A   1      33.371  41.340  47.507  1.00  0.00    +0.000 H 
ATOM    123  H22 UNL A   1      34.016  42.771  46.636  1.00  0.00    +0.000 H 
ATOM     31  C22 UNL A   1      33.176  42.320  47.124  1.00  0.00    +0.000 C 
BRANCH   31   30
ATOM    121  H20 UNL A   1      31.780  43.345  48.310  1.00  0.00    +0.000 H 
ATOM     30  C21 UNL A   1      32.845  43.235  48.314  1.00  0.00    +0.000 C 
ATOM    120  H19 UNL A   1      33.375  44.154  48.180  1.00  0.00    +0.000 H 
BRANCH   30   29
ATOM     29  C20 UNL A   1      33.206  42.677  49.700  1.00  0.00    +0.000 C 
ATOM    118  H17 UNL A   1      33.784  41.787  49.565  1.00  0.00    +0.000 H 
ATOM    119  H18 UNL A   1      33.749  43.443  50.214  1.00  0.00    +0.000 H 
BRANCH   29   28
ATOM    116  H15 UNL A   1      32.098  41.346  50.954  1.00  0.00    +0.000 H 
ATOM     28  C19 UNL A   1      31.987  42.336  50.562  1.00  0.00    +0.000 C 
ATOM    117  H16 UNL A   1      31.919  43.040  51.365  1.00  0.00    +0.000 H 
BRANCH   28   27
ATOM     27  N7  UNL A   1      30.777  42.404  49.768  1.00  0.00    +0.000 N 
ATOM    115  H14 UNL A   1      30.762  43.172  49.152  1.00  0.00    +0.000 H 
BRANCH   27   25
ATOM     25  C18 UNL A   1      29.648  41.631  49.691  1.00  0.00    +0.000 C 
ATOM     26  O2  UNL A   1      29.802  40.411  49.780  1.00  0.00    +0.000 O 
BRANCH   25   24
ATOM    100  C70 UNL A   1      27.967  43.185  48.534  1.00  0.00    +0.000 C 
ATOM    101  C71 UNL A   1      26.633  43.521  48.268  1.00  0.00    +0.000 C 
ATOM    143  H42 UNL A   1      28.726  43.696  48.058  1.00  0.00    +0.000 H 
ATOM    144  H43 UNL A   1      26.410  44.219  47.542  1.00  0.00    +0.000 H 
ATOM    113  H12 UNL A   1      25.154  41.609  50.596  1.00  0.00    +0.000 H 
ATOM    114  H13 UNL A   1      27.450  40.884  50.900  1.00  0.00    +0.000 H 
ATOM     21  C14 UNL A   1      25.603  42.906  48.990  1.00  0.00    +0.000 C 
ATOM     22  C15 UNL A   1      25.903  41.993  49.999  1.00  0.00    +0.000 C 
ATOM     23  C16 UNL A   1      27.232  41.601  50.190  1.00  0.00    +0.000 C 
ATOM     24  C17 UNL A   1      28.278  42.165  49.437  1.00  0.00    +0.000 C 
BRANCH   21   20
ATOM      2  C2  UNL A   1      23.575  44.399  49.042  1.00  0.00    +0.000 C 
ATOM      3  C3  UNL A   1      22.263  44.070  48.765  1.00  0.00    +0.000 C 
ATOM     18  N4  UNL A   1      22.195  42.835  48.194  1.00  0.00    +0.000 N 
ATOM     19  N5  UNL A   1      23.435  42.367  48.100  1.00  0.00    +0.000 N 
ATOM     20  N6  UNL A   1      24.258  43.239  48.728  1.00  0.00    +0.000 N 
BRANCH    2    1
ATOM      1  C1  UNL A   1      24.186  45.694  49.420  1.00  0.00    +0.000 C 
ATOM    102  H1  UNL A   1      25.247  45.574  49.512  1.00  0.00    +0.000 H 
ATOM    103  H2  UNL A   1      23.783  46.020  50.355  1.00  0.00    +0.000 H 
ATOM    104  H3  UNL A   1      23.974  46.423  48.666  1.00  0.00    +0.000 H 
ENDBRANCH    2    1
BRANCH    3    4
ATOM      4  C4  UNL A   1      21.081  44.908  48.933  1.00  0.00    +0.000 C 
ATOM      5  N1  UNL A   1      20.175  44.675  49.890  1.00  0.00    +0.000 N 
ATOM      6  N2  UNL A   1      19.161  45.520  49.605  1.00  0.00    +0.000 N 
ATOM     13  C11 UNL A   1      19.439  46.306  48.510  1.00  0.00    +0.000 C 
ATOM     14  C12 UNL A   1      20.710  45.974  48.081  1.00  0.00    +0.000 C 
ATOM    110  H9  UNL A   1      18.816  47.013  48.090  1.00  0.00    +0.000 H 
BRANCH    6    7
ATOM      7  C5  UNL A   1      17.974  45.516  50.373  1.00  0.00    +0.000 C 
ATOM      8  C6  UNL A   1      16.797  46.029  49.816  1.00  0.00    +0.000 C 
ATOM      9  C7  UNL A   1      15.614  46.000  50.553  1.00  0.00    +0.000 C 
ATOM    105  H4  UNL A   1      16.805  46.426  48.864  1.00  0.00    +0.000 H 
ATOM     11  C9  UNL A   1      16.798  45.034  52.427  1.00  0.00    +0.000 C 
ATOM     12  C10 UNL A   1      17.976  45.008  51.678  1.00  0.00    +0.000 C 
ATOM    109  H8  UNL A   1      18.841  44.617  52.084  1.00  0.00    +0.000 H 
ATOM     10  C8  UNL A   1      15.616  45.514  51.861  1.00  0.00    +0.000 C 
ATOM    106  H5  UNL A   1      14.734  46.338  50.131  1.00  0.00    +0.000 H 
ATOM    108  H7  UNL A   1      16.801  44.697  53.403  1.00  0.00    +0.000 H 
ATOM    107  H6  UNL A   1      14.743  45.510  52.411  1.00  0.00    +0.000 H 
ENDBRANCH    6    7
BRANCH   14   15
ATOM    111  H10 UNL A   1      21.394  47.652  46.924  1.00  0.00    +0.000 H 
ATOM     15  C13 UNL A   1      21.408  46.624  47.001  1.00  0.00    +0.000 C 
BRANCH   15   16
ATOM     16  N3  UNL A   1      22.053  45.920  46.130  1.00  0.00    +0.000 N 
BRANCH   16   17
ATOM     17  O1  UNL A   1      21.144  45.136  45.408  1.00  0.00    +0.000 O 
ATOM    112  H11 UNL A   1      20.297  44.952  45.765  1.00  0.00    +0.000 H 
ENDBRANCH   16   17
ENDBRANCH   15   16
ENDBRANCH   14   15
ENDBRANCH    3    4
ENDBRANCH   21   20
ENDBRANCH   25   24
ENDBRANCH   27   25
ENDBRANCH   28   27
ENDBRANCH   29   28
ENDBRANCH   30   29
ENDBRANCH   31   30
ENDBRANCH   32   31
ENDBRANCH   33   32
ENDBRANCH   34   33
ENDBRANCH   35   34
ENDBRANCH   37   35
ENDBRANCH   41   40
BRANCH   45   46
ATOM     46  C34 UNL A   1      21.315  33.807  45.146  1.00  0.00    +0.000 C 
ATOM     47  C35 UNL A   1      20.397  33.228  44.243  1.00  0.00    +0.000 C 
ATOM     48  F1  UNL A   1      19.750  33.986  43.344  1.00  0.00    +0.000 F 
ATOM     49  C36 UNL A   1      20.041  31.877  44.309  1.00  0.00    +0.000 C 
ATOM     50  F2  UNL A   1      19.063  31.405  43.524  1.00  0.00    +0.000 F 
ATOM     51  C37 UNL A   1      20.637  31.040  45.233  1.00  0.00    +0.000 C 
ATOM     52  F3  UNL A   1      20.249  29.762  45.346  1.00  0.00    +0.000 F 
ATOM     53  C38 UNL A   1      21.602  31.547  46.076  1.00  0.00    +0.000 C 
ATOM     54  F4  UNL A   1      22.182  30.754  46.988  1.00  0.00    +0.000 F 
ATOM     55  C39 UNL A   1      21.921  32.906  46.049  1.00  0.00    +0.000 C 
ATOM     56  F5  UNL A   1      22.758  33.312  47.009  1.00  0.00    +0.000 F 
ENDBRANCH   45   46
BRANCH   62   63
ATOM     65  F6  UNL A   1      20.798  39.436  49.054  1.00  0.00    +0.000 F 
ATOM     66  C47 UNL A   1      19.049  40.645  50.037  1.00  0.00    +0.000 C 
ATOM     67  F7  UNL A   1      19.821  41.740  50.054  1.00  0.00    +0.000 F 
ATOM     68  C48 UNL A   1      17.733  40.722  50.468  1.00  0.00    +0.000 C 
ATOM     69  F8  UNL A   1      17.231  41.890  50.892  1.00  0.00    +0.000 F 
ATOM     70  C49 UNL A   1      16.930  39.593  50.433  1.00  0.00    +0.000 C 
ATOM     71  F9  UNL A   1      15.644  39.674  50.799  1.00  0.00    +0.000 F 
ATOM     72  C50 UNL A   1      17.449  38.379  49.994  1.00  0.00    +0.000 C 
ATOM     73  F10 UNL A   1      16.640  37.308  49.955  1.00  0.00    +0.000 F 
ATOM     63  C45 UNL A   1      18.776  38.272  49.554  1.00  0.00    +0.000 C 
ATOM     64  C46 UNL A   1      19.556  39.439  49.558  1.00  0.00    +0.000 C 
ENDBRANCH   62   63
BRANCH   77   78
ATOM     78  C54 UNL A   1      23.301  35.692  53.084  1.00  0.00    +0.000 C 
ATOM     79  C55 UNL A   1      22.700  35.859  54.340  1.00  0.00    +0.000 C 
ATOM     80  F11 UNL A   1      21.700  36.738  54.498  1.00  0.00    +0.000 F 
ATOM     81  C56 UNL A   1      23.075  35.080  55.439  1.00  0.00    +0.000 C 
ATOM     82  F12 UNL A   1      22.440  35.225  56.609  1.00  0.00    +0.000 F 
ATOM     83  C57 UNL A   1      24.066  34.118  55.311  1.00  0.00    +0.000 C 
ATOM     84  F13 UNL A   1      24.387  33.334  56.351  1.00  0.00    +0.000 F 
ATOM     85  C58 UNL A   1      24.694  33.946  54.092  1.00  0.00    +0.000 C 
ATOM     86  F14 UNL A   1      25.631  32.997  53.947  1.00  0.00    +0.000 F 
ATOM     87  C59 UNL A   1      24.313  34.717  52.994  1.00  0.00    +0.000 C 
ATOM     88  F15 UNL A   1      24.890  34.430  51.817  1.00  0.00    +0.000 F 
ENDBRANCH   77   78
TORSDOF 22
ENDMDL
MODEL 6
REMARK VINA RESULT:     -10.0     40.281     44.947
ROOT
ATOM    131  H30 UNL A   1       1.277   5.637  36.801  1.00  0.00    +0.000 H 
ATOM    132  H31 UNL A   1       3.928   5.656  37.030  1.00  0.00    +0.000 H 
ATOM    133  H32 UNL A   1       2.704   9.194  35.523  1.00  0.00    +0.000 H 
ATOM    134  H33 UNL A   1       5.312  11.786  42.780  1.00  0.00    +0.000 H 
ATOM    135  H34 UNL A   1       3.731   9.937  43.534  1.00  0.00    +0.000 H 
ATOM    136  H35 UNL A   1       3.479  10.139  39.390  1.00  0.00    +0.000 H 
ATOM    137  H36 UNL A   1       3.781  12.926  37.563  1.00  0.00    +0.000 H 
ATOM    138  H37 UNL A   1       3.512  10.884  36.013  1.00  0.00    +0.000 H 
ATOM    139  H38 UNL A   1      -1.740   9.501  38.685  1.00  0.00    +0.000 H 
ATOM    140  H39 UNL A   1      -0.814  10.137  40.996  1.00  0.00    +0.000 H 
ATOM     41  C30 UNL A   1       1.854   9.179  41.461  1.00  0.00    +0.000 C 
ATOM     42  C31 UNL A   1       1.018   9.040  40.225  1.00  0.00    +0.000 C 
ATOM     43  N9  UNL A   1       1.299   8.414  39.125  1.00  0.00    +0.000 N 
ATOM     44  C32 UNL A   1       0.252   8.690  38.243  1.00  0.00    +0.000 C 
ATOM     45  C33 UNL A   1       0.406   8.592  36.893  1.00  0.00    +0.000 C 
ATOM     57  C40 UNL A   1       1.536   7.774  36.548  1.00  0.00    +0.000 C 
ATOM     58  C41 UNL A   1       1.900   6.457  36.746  1.00  0.00    +0.000 C 
ATOM     59  C42 UNL A   1       3.322   6.473  36.858  1.00  0.00    +0.000 C 
ATOM     60  C43 UNL A   1       3.746   7.793  36.693  1.00  0.00    +0.000 C 
ATOM     61  N10 UNL A   1       2.670   8.417  36.128  1.00  0.00    +0.000 N 
ATOM     62  C44 UNL A   1       4.927   8.497  37.132  1.00  0.00    +0.000 C 
ATOM     74  C51 UNL A   1       5.018   9.853  37.252  1.00  0.00    +0.000 C 
ATOM     75  N11 UNL A   1       5.861  10.420  38.194  1.00  0.00    +0.000 N 
ATOM     76  C52 UNL A   1       5.277  11.536  38.531  1.00  0.00    +0.000 C 
ATOM     77  C53 UNL A   1       5.343  12.119  39.890  1.00  0.00    +0.000 C 
ATOM     89  C60 UNL A   1       4.666  11.294  40.720  1.00  0.00    +0.000 C 
ATOM     90  C61 UNL A   1       4.710  11.218  42.164  1.00  0.00    +0.000 C 
ATOM     91  C62 UNL A   1       3.832  10.281  42.567  1.00  0.00    +0.000 C 
ATOM     92  C63 UNL A   1       3.042   9.823  41.420  1.00  0.00    +0.000 C 
ATOM     93  N12 UNL A   1       3.683  10.369  40.326  1.00  0.00    +0.000 N 
ATOM     94  C64 UNL A   1       4.266  12.017  37.605  1.00  0.00    +0.000 C 
ATOM     95  C65 UNL A   1       4.146  10.940  36.825  1.00  0.00    +0.000 C 
ATOM     96  C66 UNL A   1      -0.783   9.315  39.021  1.00  0.00    +0.000 C 
ATOM     97  C67 UNL A   1      -0.336   9.624  40.239  1.00  0.00    +0.000 C 
ENDROOT
BRANCH   41   40
ATOM    129  H28 UNL A   1       0.342   6.264  44.667  1.00  0.00    +0.000 H 
ATOM     98  C68 UNL A   1       0.417   9.858  43.360  1.00  0.00    +0.000 C 
ATOM     99  C69 UNL A   1      -0.315   9.555  44.488  1.00  0.00    +0.000 C 
ATOM    130  H29 UNL A   1       1.776   6.837  42.786  1.00  0.00    +0.000 H 
ATOM     37  C26 UNL A   1      -0.409   8.228  44.901  1.00  0.00    +0.000 C 
ATOM     38  C27 UNL A   1       0.369   7.231  44.307  1.00  0.00    +0.000 C 
ATOM     39  C28 UNL A   1       1.180   7.557  43.223  1.00  0.00    +0.000 C 
ATOM     40  C29 UNL A   1       1.184   8.869  42.732  1.00  0.00    +0.000 C 
ATOM    141  H40 UNL A   1       0.400  10.817  42.977  1.00  0.00    +0.000 H 
ATOM    142  H41 UNL A   1      -0.789  10.303  45.020  1.00  0.00    +0.000 H 
BRANCH   37   35
ATOM     35  C25 UNL A   1      -1.390   7.869  45.942  1.00  0.00    +0.000 C 
ATOM     36  O3  UNL A   1      -2.385   7.231  45.659  1.00  0.00    +0.000 O 
BRANCH   35   34
ATOM     34  N8  UNL A   1      -1.158   8.292  47.237  1.00  0.00    +0.000 N 
ATOM    128  H27 UNL A   1      -1.933   8.636  47.736  1.00  0.00    +0.000 H 
BRANCH   34   33
ATOM     33  C24 UNL A   1       0.121   8.283  47.944  1.00  0.00    +0.000 C 
ATOM    126  H25 UNL A   1       0.066   7.584  48.751  1.00  0.00    +0.000 H 
ATOM    127  H26 UNL A   1       0.886   8.003  47.249  1.00  0.00    +0.000 H 
BRANCH   33   32
ATOM    124  H23 UNL A   1      -0.409  10.053  48.985  1.00  0.00    +0.000 H 
ATOM    125  H24 UNL A   1       1.281   9.530  49.176  1.00  0.00    +0.000 H 
ATOM     32  C23 UNL A   1       0.461   9.659  48.501  1.00  0.00    +0.000 C 
BRANCH   32   31
ATOM    122  H21 UNL A   1       0.307  10.512  46.562  1.00  0.00    +0.000 H 
ATOM    123  H22 UNL A   1       0.807  11.630  47.874  1.00  0.00    +0.000 H 
ATOM     31  C22 UNL A   1       0.914  10.662  47.431  1.00  0.00    +0.000 C 
BRANCH   31   30
ATOM    121  H20 UNL A   1       2.503  11.253  46.192  1.00  0.00    +0.000 H 
ATOM     30  C21 UNL A   1       2.387  10.562  47.001  1.00  0.00    +0.000 C 
ATOM    120  H19 UNL A   1       2.583   9.545  46.732  1.00  0.00    +0.000 H 
BRANCH   30   29
ATOM     29  C20 UNL A   1       3.417  10.978  48.062  1.00  0.00    +0.000 C 
ATOM    118  H17 UNL A   1       3.096  11.899  48.501  1.00  0.00    +0.000 H 
ATOM    119  H18 UNL A   1       3.470  10.182  48.776  1.00  0.00    +0.000 H 
BRANCH   29   28
ATOM    116  H15 UNL A   1       5.535  10.695  48.152  1.00  0.00    +0.000 H 
ATOM     28  C19 UNL A   1       4.830  11.174  47.504  1.00  0.00    +0.000 C 
ATOM    117  H16 UNL A   1       4.883  10.742  46.527  1.00  0.00    +0.000 H 
BRANCH   28   27
ATOM     27  N7  UNL A   1       5.143  12.586  47.416  1.00  0.00    +0.000 N 
ATOM    115  H14 UNL A   1       6.111  12.767  47.417  1.00  0.00    +0.000 H 
BRANCH   27   25
ATOM     25  C18 UNL A   1       4.382  13.722  47.333  1.00  0.00    +0.000 C 
ATOM     26  O2  UNL A   1       4.174  14.330  48.386  1.00  0.00    +0.000 O 
BRANCH   25   24
ATOM    100  C70 UNL A   1       3.735  13.539  44.858  1.00  0.00    +0.000 C 
ATOM    101  C71 UNL A   1       2.990  14.025  43.776  1.00  0.00    +0.000 C 
ATOM    143  H42 UNL A   1       4.283  12.672  44.751  1.00  0.00    +0.000 H 
ATOM    144  H43 UNL A   1       2.926  13.478  42.904  1.00  0.00    +0.000 H 
ATOM    113  H12 UNL A   1       2.046  16.966  45.089  1.00  0.00    +0.000 H 
ATOM    114  H13 UNL A   1       3.163  16.018  47.024  1.00  0.00    +0.000 H 
ATOM     21  C14 UNL A   1       2.332  15.257  43.881  1.00  0.00    +0.000 C 
ATOM     22  C15 UNL A   1       2.450  16.018  45.043  1.00  0.00    +0.000 C 
ATOM     23  C16 UNL A   1       3.121  15.479  46.145  1.00  0.00    +0.000 C 
ATOM     24  C17 UNL A   1       3.742  14.217  46.079  1.00  0.00    +0.000 C 
BRANCH   21   20
ATOM      2  C2  UNL A   1       0.452  15.216  42.205  1.00  0.00    +0.000 C 
ATOM      3  C3  UNL A   1       0.302  15.984  41.068  1.00  0.00    +0.000 C 
ATOM     18  N4  UNL A   1       1.210  17.000  41.060  1.00  0.00    +0.000 N 
ATOM     19  N5  UNL A   1       1.937  16.898  42.168  1.00  0.00    +0.000 N 
ATOM     20  N6  UNL A   1       1.580  15.753  42.796  1.00  0.00    +0.000 N 
BRANCH    2    1
ATOM      1  C1  UNL A   1      -0.427  14.178  42.792  1.00  0.00    +0.000 C 
ATOM    102  H1  UNL A   1       0.044  13.220  42.704  1.00  0.00    +0.000 H 
ATOM    103  H2  UNL A   1      -1.361  14.164  42.271  1.00  0.00    +0.000 H 
ATOM    104  H3  UNL A   1      -0.598  14.398  43.825  1.00  0.00    +0.000 H 
ENDBRANCH    2    1
BRANCH    3    4
ATOM      4  C4  UNL A   1      -0.719  15.854  40.035  1.00  0.00    +0.000 C 
ATOM      5  N1  UNL A   1      -1.947  16.366  40.181  1.00  0.00    +0.000 N 
ATOM      6  N2  UNL A   1      -2.640  15.881  39.127  1.00  0.00    +0.000 N 
ATOM     13  C11 UNL A   1      -1.851  15.112  38.303  1.00  0.00    +0.000 C 
ATOM     14  C12 UNL A   1      -0.575  15.120  38.835  1.00  0.00    +0.000 C 
ATOM    110  H9  UNL A   1      -2.155  14.621  37.448  1.00  0.00    +0.000 H 
BRANCH    6    7
ATOM      7  C5  UNL A   1      -4.018  16.158  38.975  1.00  0.00    +0.000 C 
ATOM      8  C6  UNL A   1      -4.946  15.127  39.164  1.00  0.00    +0.000 C 
ATOM      9  C7  UNL A   1      -6.310  15.396  39.049  1.00  0.00    +0.000 C 
ATOM    105  H4  UNL A   1      -4.623  14.173  39.388  1.00  0.00    +0.000 H 
ATOM     11  C9  UNL A   1      -5.815  17.691  38.470  1.00  0.00    +0.000 C 
ATOM     12  C10 UNL A   1      -4.450  17.446  38.637  1.00  0.00    +0.000 C 
ATOM    109  H8  UNL A   1      -3.766  18.209  38.511  1.00  0.00    +0.000 H 
ATOM     10  C8  UNL A   1      -6.743  16.673  38.691  1.00  0.00    +0.000 C 
ATOM    106  H5  UNL A   1      -7.000  14.650  39.230  1.00  0.00    +0.000 H 
ATOM    108  H7  UNL A   1      -6.137  18.629  38.184  1.00  0.00    +0.000 H 
ATOM    107  H6  UNL A   1      -7.752  16.865  38.590  1.00  0.00    +0.000 H 
ENDBRANCH    6    7
BRANCH   14   15
ATOM    111  H10 UNL A   1       0.832  13.530  38.495  1.00  0.00    +0.000 H 
ATOM     15  C13 UNL A   1       0.571  14.492  38.229  1.00  0.00    +0.000 C 
BRANCH   15   16
ATOM     16  N3  UNL A   1       1.273  15.131  37.351  1.00  0.00    +0.000 N 
BRANCH   16   17
ATOM     17  O1  UNL A   1       2.629  14.844  37.549  1.00  0.00    +0.000 O 
ATOM    112  H11 UNL A   1       3.271  15.177  36.953  1.00  0.00    +0.000 H 
ENDBRANCH   16   17
ENDBRANCH   15   16
ENDBRANCH   14   15
ENDBRANCH    3    4
ENDBRANCH   21   20
ENDBRANCH   25   24
ENDBRANCH   27   25
ENDBRANCH   28   27
ENDBRANCH   29   28
ENDBRANCH   30   29
ENDBRANCH   31   30
ENDBRANCH   32   31
ENDBRANCH   33   32
ENDBRANCH   34   33
ENDBRANCH   35   34
ENDBRANCH   37   35
ENDBRANCH   41   40
BRANCH   45   46
ATOM     46  C34 UNL A   1      -0.211   9.547  35.886  1.00  0.00    +0.000 C 
ATOM     47  C35 UNL A   1      -0.087  10.938  36.094  1.00  0.00    +0.000 C 
ATOM     48  F1  UNL A   1       0.795  11.421  36.982  1.00  0.00    +0.000 F 
ATOM     49  C36 UNL A   1      -0.938  11.860  35.476  1.00  0.00    +0.000 C 
ATOM     50  F2  UNL A   1      -0.875  13.156  35.813  1.00  0.00    +0.000 F 
ATOM     51  C37 UNL A   1      -1.898  11.435  34.578  1.00  0.00    +0.000 C 
ATOM     52  F3  UNL A   1      -2.760  12.307  34.037  1.00  0.00    +0.000 F 
ATOM     53  C38 UNL A   1      -1.993  10.093  34.281  1.00  0.00    +0.000 C 
ATOM     54  F4  UNL A   1      -2.928   9.659  33.422  1.00  0.00    +0.000 F 
ATOM     55  C39 UNL A   1      -1.183   9.164  34.936  1.00  0.00    +0.000 C 
ATOM     56  F5  UNL A   1      -1.466   7.883  34.680  1.00  0.00    +0.000 F 
ENDBRANCH   45   46
BRANCH   62   63
ATOM     65  F6  UNL A   1       4.717   6.931  39.600  1.00  0.00    +0.000 F 
ATOM     66  C47 UNL A   1       6.913   6.136  39.413  1.00  0.00    +0.000 C 
ATOM     67  F7  UNL A   1       6.760   5.458  40.559  1.00  0.00    +0.000 F 
ATOM     68  C48 UNL A   1       8.092   6.019  38.694  1.00  0.00    +0.000 C 
ATOM     69  F8  UNL A   1       9.075   5.223  39.138  1.00  0.00    +0.000 F 
ATOM     70  C49 UNL A   1       8.242   6.707  37.500  1.00  0.00    +0.000 C 
ATOM     71  F9  UNL A   1       9.359   6.557  36.776  1.00  0.00    +0.000 F 
ATOM     72  C50 UNL A   1       7.224   7.535  37.038  1.00  0.00    +0.000 C 
ATOM     73  F10 UNL A   1       7.393   8.173  35.868  1.00  0.00    +0.000 F 
ATOM     63  C45 UNL A   1       6.021   7.673  37.745  1.00  0.00    +0.000 C 
ATOM     64  C46 UNL A   1       5.877   6.932  38.929  1.00  0.00    +0.000 C 
ENDBRANCH   62   63
BRANCH   77   78
ATOM     78  C54 UNL A   1       5.851  13.480  40.161  1.00  0.00    +0.000 C 
ATOM     79  C55 UNL A   1       7.207  13.798  39.993  1.00  0.00    +0.000 C 
ATOM     80  F11 UNL A   1       8.104  12.828  39.764  1.00  0.00    +0.000 F 
ATOM     81  C56 UNL A   1       7.653  15.123  39.996  1.00  0.00    +0.000 C 
ATOM     82  F12 UNL A   1       8.947  15.394  39.776  1.00  0.00    +0.000 F 
ATOM     83  C57 UNL A   1       6.755  16.165  40.174  1.00  0.00    +0.000 C 
ATOM     84  F13 UNL A   1       7.175  17.437  40.122  1.00  0.00    +0.000 F 
ATOM     85  C58 UNL A   1       5.416  15.883  40.366  1.00  0.00    +0.000 C 
ATOM     86  F14 UNL A   1       4.533  16.883  40.505  1.00  0.00    +0.000 F 
ATOM     87  C59 UNL A   1       4.970  14.562  40.353  1.00  0.00    +0.000 C 
ATOM     88  F15 UNL A   1       3.647  14.363  40.442  1.00  0.00    +0.000 F 
ENDBRANCH   77   78
TORSDOF 22
ENDMDL
MODEL 7
REMARK VINA RESULT:     -10.0     42.975     49.761
ROOT
ATOM    131  H30 UNL A   1      19.559  37.542  44.352  1.00  0.00    +0.000 H 
ATOM    132  H31 UNL A   1      18.324  38.559  46.479  1.00  0.00    +0.000 H 
ATOM    133  H32 UNL A   1      19.498  34.787  47.306  1.00  0.00    +0.000 H 
ATOM    134  H33 UNL A   1      24.485  38.760  52.358  1.00  0.00    +0.000 H 
ATOM    135  H34 UNL A   1      25.026  39.976  50.186  1.00  0.00    +0.000 H 
ATOM    136  H35 UNL A   1      22.284  36.992  49.261  1.00  0.00    +0.000 H 
ATOM    137  H36 UNL A   1      22.078  34.012  50.769  1.00  0.00    +0.000 H 
ATOM    138  H37 UNL A   1      20.186  34.252  49.035  1.00  0.00    +0.000 H 
ATOM    139  H38 UNL A   1      24.260  35.223  44.666  1.00  0.00    +0.000 H 
ATOM    140  H39 UNL A   1      25.712  36.647  46.238  1.00  0.00    +0.000 H 
ATOM     41  C30 UNL A   1      24.194  38.478  47.849  1.00  0.00    +0.000 C 
ATOM     42  C31 UNL A   1      23.690  37.470  46.862  1.00  0.00    +0.000 C 
ATOM     43  N9  UNL A   1      22.470  37.247  46.486  1.00  0.00    +0.000 N 
ATOM     44  C32 UNL A   1      22.519  36.128  45.651  1.00  0.00    +0.000 C 
ATOM     45  C33 UNL A   1      21.426  35.344  45.437  1.00  0.00    +0.000 C 
ATOM     57  C40 UNL A   1      20.208  36.033  45.765  1.00  0.00    +0.000 C 
ATOM     58  C41 UNL A   1      19.560  37.164  45.312  1.00  0.00    +0.000 C 
ATOM     59  C42 UNL A   1      18.893  37.699  46.454  1.00  0.00    +0.000 C 
ATOM     60  C43 UNL A   1      19.147  36.847  47.531  1.00  0.00    +0.000 C 
ATOM     61  N10 UNL A   1      19.597  35.698  46.944  1.00  0.00    +0.000 N 
ATOM     62  C44 UNL A   1      19.154  37.060  48.958  1.00  0.00    +0.000 C 
ATOM     74  C51 UNL A   1      19.806  36.265  49.855  1.00  0.00    +0.000 C 
ATOM     75  N11 UNL A   1      20.290  36.794  51.040  1.00  0.00    +0.000 N 
ATOM     76  C52 UNL A   1      21.347  36.081  51.313  1.00  0.00    +0.000 C 
ATOM     77  C53 UNL A   1      22.549  36.620  51.988  1.00  0.00    +0.000 C 
ATOM     89  C60 UNL A   1      23.130  37.501  51.141  1.00  0.00    +0.000 C 
ATOM     90  C61 UNL A   1      24.106  38.529  51.426  1.00  0.00    +0.000 C 
ATOM     91  C62 UNL A   1      24.435  39.134  50.271  1.00  0.00    +0.000 C 
ATOM     92  C63 UNL A   1      23.826  38.414  49.149  1.00  0.00    +0.000 C 
ATOM     93  N12 UNL A   1      22.950  37.530  49.747  1.00  0.00    +0.000 N 
ATOM     94  C64 UNL A   1      21.438  34.807  50.619  1.00  0.00    +0.000 C 
ATOM     95  C65 UNL A   1      20.456  34.966  49.730  1.00  0.00    +0.000 C 
ATOM     96  C66 UNL A   1      23.909  35.888  45.372  1.00  0.00    +0.000 C 
ATOM     97  C67 UNL A   1      24.684  36.642  46.153  1.00  0.00    +0.000 C 
ENDROOT
BRANCH   41   40
ATOM    129  H28 UNL A   1      26.014  41.879  45.362  1.00  0.00    +0.000 H 
ATOM     98  C68 UNL A   1      26.629  38.897  47.676  1.00  0.00    +0.000 C 
ATOM     99  C69 UNL A   1      27.700  39.600  47.166  1.00  0.00    +0.000 C 
ATOM    130  H29 UNL A   1      24.127  40.751  46.408  1.00  0.00    +0.000 H 
ATOM     37  C26 UNL A   1      27.466  40.625  46.253  1.00  0.00    +0.000 C 
ATOM     38  C27 UNL A   1      26.170  41.073  45.988  1.00  0.00    +0.000 C 
ATOM     39  C28 UNL A   1      25.090  40.420  46.577  1.00  0.00    +0.000 C 
ATOM     40  C29 UNL A   1      25.320  39.312  47.403  1.00  0.00    +0.000 C 
ATOM    141  H40 UNL A   1      26.793  38.062  48.262  1.00  0.00    +0.000 H 
ATOM    142  H41 UNL A   1      28.663  39.368  47.457  1.00  0.00    +0.000 H 
BRANCH   37   35
ATOM     35  C25 UNL A   1      28.605  41.202  45.515  1.00  0.00    +0.000 C 
ATOM     36  O3  UNL A   1      29.160  42.203  45.921  1.00  0.00    +0.000 O 
BRANCH   35   34
ATOM     34  N8  UNL A   1      29.008  40.587  44.344  1.00  0.00    +0.000 N 
ATOM    128  H27 UNL A   1      28.444  40.733  43.551  1.00  0.00    +0.000 H 
BRANCH   34   33
ATOM     33  C24 UNL A   1      30.186  39.742  44.161  1.00  0.00    +0.000 C 
ATOM    126  H25 UNL A   1      30.562  39.880  43.169  1.00  0.00    +0.000 H 
ATOM    127  H26 UNL A   1      30.918  40.026  44.888  1.00  0.00    +0.000 H 
BRANCH   33   32
ATOM    124  H23 UNL A   1      29.232  38.180  45.233  1.00  0.00    +0.000 H 
ATOM    125  H24 UNL A   1      29.363  37.933  43.476  1.00  0.00    +0.000 H 
ATOM     32  C23 UNL A   1      29.853  38.270  44.366  1.00  0.00    +0.000 C 
BRANCH   32   31
ATOM    122  H21 UNL A   1      31.947  38.018  44.616  1.00  0.00    +0.000 H 
ATOM    123  H22 UNL A   1      30.906  36.820  45.455  1.00  0.00    +0.000 H 
ATOM     31  C22 UNL A   1      31.089  37.380  44.562  1.00  0.00    +0.000 C 
BRANCH   31   30
ATOM    121  H20 UNL A   1      31.797  35.501  43.950  1.00  0.00    +0.000 H 
ATOM     30  C21 UNL A   1      31.345  36.338  43.461  1.00  0.00    +0.000 C 
ATOM    120  H19 UNL A   1      31.965  36.791  42.716  1.00  0.00    +0.000 H 
BRANCH   30   29
ATOM     29  C20 UNL A   1      30.090  35.791  42.762  1.00  0.00    +0.000 C 
ATOM    118  H17 UNL A   1      29.230  36.238  43.215  1.00  0.00    +0.000 H 
ATOM    119  H18 UNL A   1      30.178  36.034  41.724  1.00  0.00    +0.000 H 
BRANCH   29   28
ATOM    116  H15 UNL A   1      30.385  33.820  41.987  1.00  0.00    +0.000 H 
ATOM     28  C19 UNL A   1      29.949  34.268  42.855  1.00  0.00    +0.000 C 
ATOM    117  H16 UNL A   1      30.453  33.924  43.734  1.00  0.00    +0.000 H 
BRANCH   28   27
ATOM     27  N7  UNL A   1      28.551  33.898  42.935  1.00  0.00    +0.000 N 
ATOM    115  H14 UNL A   1      28.289  33.232  42.258  1.00  0.00    +0.000 H 
BRANCH   27   25
ATOM     25  C18 UNL A   1      27.514  34.276  43.747  1.00  0.00    +0.000 C 
ATOM     26  O2  UNL A   1      26.507  34.721  43.191  1.00  0.00    +0.000 O 
BRANCH   25   24
ATOM    100  C70 UNL A   1      27.043  33.232  46.042  1.00  0.00    +0.000 C 
ATOM    101  C71 UNL A   1      27.257  33.236  47.426  1.00  0.00    +0.000 C 
ATOM    143  H42 UNL A   1      26.497  32.469  45.612  1.00  0.00    +0.000 H 
ATOM    144  H43 UNL A   1      26.941  32.441  48.001  1.00  0.00    +0.000 H 
ATOM    113  H12 UNL A   1      28.683  36.261  47.710  1.00  0.00    +0.000 H 
ATOM    114  H13 UNL A   1      28.494  36.147  45.293  1.00  0.00    +0.000 H 
ATOM     21  C14 UNL A   1      27.902  34.324  48.027  1.00  0.00    +0.000 C 
ATOM     22  C15 UNL A   1      28.294  35.419  47.259  1.00  0.00    +0.000 C 
ATOM     23  C16 UNL A   1      28.155  35.360  45.869  1.00  0.00    +0.000 C 
ATOM     24  C17 UNL A   1      27.560  34.251  45.238  1.00  0.00    +0.000 C 
BRANCH   21   20
ATOM      2  C2  UNL A   1      27.421  35.009  50.403  1.00  0.00    +0.000 C 
ATOM      3  C3  UNL A   1      28.216  34.843  51.520  1.00  0.00    +0.000 C 
ATOM     18  N4  UNL A   1      29.255  34.006  51.241  1.00  0.00    +0.000 N 
ATOM     19  N5  UNL A   1      29.141  33.634  49.970  1.00  0.00    +0.000 N 
ATOM     20  N6  UNL A   1      28.121  34.336  49.420  1.00  0.00    +0.000 N 
BRANCH    2    1
ATOM      1  C1  UNL A   1      26.071  35.601  50.259  1.00  0.00    +0.000 C 
ATOM    102  H1  UNL A   1      25.493  35.008  49.580  1.00  0.00    +0.000 H 
ATOM    103  H2  UNL A   1      26.156  36.597  49.878  1.00  0.00    +0.000 H 
ATOM    104  H3  UNL A   1      25.587  35.624  51.213  1.00  0.00    +0.000 H 
ENDBRANCH    2    1
BRANCH    3    4
ATOM      4  C4  UNL A   1      27.987  35.366  52.861  1.00  0.00    +0.000 C 
ATOM      5  N1  UNL A   1      27.302  36.496  53.076  1.00  0.00    +0.000 N 
ATOM      6  N2  UNL A   1      27.470  36.745  54.393  1.00  0.00    +0.000 N 
ATOM     13  C11 UNL A   1      28.213  35.765  55.011  1.00  0.00    +0.000 C 
ATOM     14  C12 UNL A   1      28.518  34.817  54.052  1.00  0.00    +0.000 C 
ATOM    110  H9  UNL A   1      28.489  35.742  56.005  1.00  0.00    +0.000 H 
BRANCH    6    7
ATOM      7  C5  UNL A   1      26.937  37.913  54.984  1.00  0.00    +0.000 C 
ATOM      8  C6  UNL A   1      27.160  38.152  56.346  1.00  0.00    +0.000 C 
ATOM      9  C7  UNL A   1      26.667  39.318  56.932  1.00  0.00    +0.000 C 
ATOM    105  H4  UNL A   1      27.688  37.471  56.912  1.00  0.00    +0.000 H 
ATOM     11  C9  UNL A   1      25.655  39.954  54.830  1.00  0.00    +0.000 C 
ATOM     12  C10 UNL A   1      26.191  38.819  54.220  1.00  0.00    +0.000 C 
ATOM    109  H8  UNL A   1      26.038  38.648  53.213  1.00  0.00    +0.000 H 
ATOM     10  C8  UNL A   1      25.905  40.211  56.179  1.00  0.00    +0.000 C 
ATOM    106  H5  UNL A   1      26.865  39.520  57.925  1.00  0.00    +0.000 H 
ATOM    108  H7  UNL A   1      25.071  40.606  54.281  1.00  0.00    +0.000 H 
ATOM    107  H6  UNL A   1      25.526  41.064  56.620  1.00  0.00    +0.000 H 
ENDBRANCH    6    7
BRANCH   14   15
ATOM    111  H10 UNL A   1      30.094  33.378  53.799  1.00  0.00    +0.000 H 
ATOM     15  C13 UNL A   1      29.222  33.587  54.308  1.00  0.00    +0.000 C 
BRANCH   15   16
ATOM     16  N3  UNL A   1      28.763  32.746  55.174  1.00  0.00    +0.000 N 
BRANCH   16   17
ATOM     17  O1  UNL A   1      29.829  32.218  55.913  1.00  0.00    +0.000 O 
ATOM    112  H11 UNL A   1      29.724  32.042  56.828  1.00  0.00    +0.000 H 
ENDBRANCH   16   17
ENDBRANCH   15   16
ENDBRANCH   14   15
ENDBRANCH    3    4
ENDBRANCH   21   20
ENDBRANCH   25   24
ENDBRANCH   27   25
ENDBRANCH   28   27
ENDBRANCH   29   28
ENDBRANCH   30   29
ENDBRANCH   31   30
ENDBRANCH   32   31
ENDBRANCH   33   32
ENDBRANCH   34   33
ENDBRANCH   35   34
ENDBRANCH   37   35
ENDBRANCH   41   40
BRANCH   45   46
ATOM     46  C34 UNL A   1      21.466  33.830  45.313  1.00  0.00    +0.000 C 
ATOM     47  C35 UNL A   1      20.603  33.193  44.394  1.00  0.00    +0.000 C 
ATOM     48  F1  UNL A   1      19.976  33.900  43.442  1.00  0.00    +0.000 F 
ATOM     49  C36 UNL A   1      20.281  31.837  44.496  1.00  0.00    +0.000 C 
ATOM     50  F2  UNL A   1      19.349  31.310  43.689  1.00  0.00    +0.000 F 
ATOM     51  C37 UNL A   1      20.857  31.051  45.475  1.00  0.00    +0.000 C 
ATOM     52  F3  UNL A   1      20.499  29.768  45.620  1.00  0.00    +0.000 F 
ATOM     53  C38 UNL A   1      21.772  31.615  46.338  1.00  0.00    +0.000 C 
ATOM     54  F4  UNL A   1      22.333  30.872  47.303  1.00  0.00    +0.000 F 
ATOM     55  C39 UNL A   1      22.056  32.980  46.274  1.00  0.00    +0.000 C 
ATOM     56  F5  UNL A   1      22.840  33.444  47.252  1.00  0.00    +0.000 F 
ENDBRANCH   45   46
BRANCH   62   63
ATOM     65  F6  UNL A   1      16.565  37.514  50.253  1.00  0.00    +0.000 F 
ATOM     66  C47 UNL A   1      16.995  39.796  50.563  1.00  0.00    +0.000 C 
ATOM     67  F7  UNL A   1      15.789  39.942  51.129  1.00  0.00    +0.000 F 
ATOM     68  C48 UNL A   1      17.861  40.876  50.496  1.00  0.00    +0.000 C 
ATOM     69  F8  UNL A   1      17.499  42.062  51.004  1.00  0.00    +0.000 F 
ATOM     70  C49 UNL A   1      19.115  40.719  49.927  1.00  0.00    +0.000 C 
ATOM     71  F9  UNL A   1      19.976  41.746  49.907  1.00  0.00    +0.000 F 
ATOM     72  C50 UNL A   1      19.494  39.489  49.398  1.00  0.00    +0.000 C 
ATOM     73  F10 UNL A   1      20.723  39.365  48.870  1.00  0.00    +0.000 F 
ATOM     63  C45 UNL A   1      18.638  38.381  49.451  1.00  0.00    +0.000 C 
ATOM     64  C46 UNL A   1      17.390  38.554  50.071  1.00  0.00    +0.000 C 
ENDBRANCH   62   63
BRANCH   77   78
ATOM     78  C54 UNL A   1      23.090  36.060  53.244  1.00  0.00    +0.000 C 
ATOM     79  C55 UNL A   1      23.920  34.929  53.240  1.00  0.00    +0.000 C 
ATOM     80  F11 UNL A   1      24.089  34.221  52.114  1.00  0.00    +0.000 F 
ATOM     81  C56 UNL A   1      24.639  34.546  54.376  1.00  0.00    +0.000 C 
ATOM     82  F12 UNL A   1      25.467  33.494  54.320  1.00  0.00    +0.000 F 
ATOM     83  C57 UNL A   1      24.540  35.279  55.549  1.00  0.00    +0.000 C 
ATOM     84  F13 UNL A   1      25.271  34.943  56.621  1.00  0.00    +0.000 F 
ATOM     85  C58 UNL A   1      23.712  36.385  55.592  1.00  0.00    +0.000 C 
ATOM     86  F14 UNL A   1      23.634  37.122  56.709  1.00  0.00    +0.000 F 
ATOM     87  C59 UNL A   1      23.003  36.773  54.455  1.00  0.00    +0.000 C 
ATOM     88  F15 UNL A   1      22.298  37.911  54.534  1.00  0.00    +0.000 F 
ENDBRANCH   77   78
TORSDOF 22
ENDMDL
MODEL 8
REMARK VINA RESULT:      -9.9     32.192     37.087
ROOT
ATOM    131  H30 UNL A   1      12.079  -5.655  21.584  1.00  0.00    +0.000 H 
ATOM    132  H31 UNL A   1      13.004  -3.559  22.937  1.00  0.00    +0.000 H 
ATOM    133  H32 UNL A   1      10.106  -2.331  20.412  1.00  0.00    +0.000 H 
ATOM    134  H33 UNL A   1       6.230  -1.046  27.448  1.00  0.00    +0.000 H 
ATOM    135  H34 UNL A   1       6.898  -3.483  27.771  1.00  0.00    +0.000 H 
ATOM    136  H35 UNL A   1       8.170  -2.365  23.975  1.00  0.00    +0.000 H 
ATOM    137  H36 UNL A   1       6.615  -0.180  21.974  1.00  0.00    +0.000 H 
ATOM    138  H37 UNL A   1       8.810  -0.969  20.877  1.00  0.00    +0.000 H 
ATOM    139  H38 UNL A   1       6.951  -6.720  21.201  1.00  0.00    +0.000 H 
ATOM    140  H39 UNL A   1       5.914  -6.328  23.520  1.00  0.00    +0.000 H 
ATOM     41  C30 UNL A   1       7.582  -4.778  25.271  1.00  0.00    +0.000 C 
ATOM     42  C31 UNL A   1       7.835  -5.163  23.845  1.00  0.00    +0.000 C 
ATOM     43  N9  UNL A   1       8.881  -4.926  23.117  1.00  0.00    +0.000 N 
ATOM     44  C32 UNL A   1       8.571  -5.378  21.833  1.00  0.00    +0.000 C 
ATOM     45  C33 UNL A   1       9.215  -4.905  20.730  1.00  0.00    +0.000 C 
ATOM     57  C40 UNL A   1      10.471  -4.295  21.073  1.00  0.00    +0.000 C 
ATOM     58  C41 UNL A   1      11.649  -4.720  21.653  1.00  0.00    +0.000 C 
ATOM     59  C42 UNL A   1      12.145  -3.590  22.368  1.00  0.00    +0.000 C 
ATOM     60  C43 UNL A   1      11.257  -2.533  22.159  1.00  0.00    +0.000 C 
ATOM     61  N10 UNL A   1      10.523  -2.927  21.075  1.00  0.00    +0.000 N 
ATOM     62  C44 UNL A   1      10.956  -1.348  22.928  1.00  0.00    +0.000 C 
ATOM     74  C51 UNL A   1       9.803  -0.628  22.817  1.00  0.00    +0.000 C 
ATOM     75  N11 UNL A   1       9.301   0.064  23.907  1.00  0.00    +0.000 N 
ATOM     76  C52 UNL A   1       8.008   0.051  23.740  1.00  0.00    +0.000 C 
ATOM     77  C53 UNL A   1       7.036  -0.002  24.855  1.00  0.00    +0.000 C 
ATOM     89  C60 UNL A   1       7.161  -1.212  25.446  1.00  0.00    +0.000 C 
ATOM     90  C61 UNL A   1       6.705  -1.640  26.750  1.00  0.00    +0.000 C 
ATOM     91  C62 UNL A   1       7.006  -2.942  26.899  1.00  0.00    +0.000 C 
ATOM     92  C63 UNL A   1       7.514  -3.477  25.631  1.00  0.00    +0.000 C 
ATOM     93  N12 UNL A   1       7.708  -2.360  24.844  1.00  0.00    +0.000 N 
ATOM     94  C64 UNL A   1       7.555  -0.255  22.393  1.00  0.00    +0.000 C 
ATOM     95  C65 UNL A   1       8.707  -0.664  21.857  1.00  0.00    +0.000 C 
ATOM     96  C66 UNL A   1       7.353  -6.134  21.949  1.00  0.00    +0.000 C 
ATOM     97  C67 UNL A   1       6.813  -5.974  23.158  1.00  0.00    +0.000 C 
ENDROOT
BRANCH   41   40
ATOM    129  H28 UNL A   1       4.413  -6.793  27.910  1.00  0.00    +0.000 H 
ATOM     98  C68 UNL A   1       8.041  -6.748  26.700  1.00  0.00    +0.000 C 
ATOM     99  C69 UNL A   1       7.639  -7.690  27.624  1.00  0.00    +0.000 C 
ATOM    130  H29 UNL A   1       5.082  -5.252  26.147  1.00  0.00    +0.000 H 
ATOM     37  C26 UNL A   1       6.340  -7.638  28.125  1.00  0.00    +0.000 C 
ATOM     38  C27 UNL A   1       5.390  -6.773  27.577  1.00  0.00    +0.000 C 
ATOM     39  C28 UNL A   1       5.776  -5.884  26.577  1.00  0.00    +0.000 C 
ATOM     40  C29 UNL A   1       7.111  -5.853  26.156  1.00  0.00    +0.000 C 
ATOM    141  H40 UNL A   1       9.031  -6.704  26.409  1.00  0.00    +0.000 H 
ATOM    142  H41 UNL A   1       8.293  -8.423  27.941  1.00  0.00    +0.000 H 
BRANCH   37   35
ATOM     35  C25 UNL A   1       5.987  -8.470  29.290  1.00  0.00    +0.000 C 
ATOM     36  O3  UNL A   1       6.053  -9.682  29.225  1.00  0.00    +0.000 O 
BRANCH   35   34
ATOM     34  N8  UNL A   1       5.563  -7.838  30.444  1.00  0.00    +0.000 N 
ATOM    128  H27 UNL A   1       4.614  -7.942  30.681  1.00  0.00    +0.000 H 
BRANCH   34   33
ATOM     33  C24 UNL A   1       6.378  -7.032  31.349  1.00  0.00    +0.000 C 
ATOM    126  H25 UNL A   1       6.694  -7.643  32.169  1.00  0.00    +0.000 H 
ATOM    127  H26 UNL A   1       7.220  -6.663  30.803  1.00  0.00    +0.000 H 
BRANCH   33   32
ATOM    124  H23 UNL A   1       5.007  -6.171  32.719  1.00  0.00    +0.000 H 
ATOM    125  H24 UNL A   1       6.315  -5.098  32.170  1.00  0.00    +0.000 H 
ATOM     32  C23 UNL A   1       5.598  -5.841  31.890  1.00  0.00    +0.000 C 
BRANCH   32   31
ATOM    122  H21 UNL A   1       4.312  -5.969  30.205  1.00  0.00    +0.000 H 
ATOM    123  H22 UNL A   1       3.890  -4.718  31.422  1.00  0.00    +0.000 H 
ATOM     31  C22 UNL A   1       4.664  -5.196  30.857  1.00  0.00    +0.000 C 
BRANCH   31   30
ATOM    121  H20 UNL A   1       4.861  -4.211  29.013  1.00  0.00    +0.000 H 
ATOM     30  C21 UNL A   1       5.287  -4.092  29.987  1.00  0.00    +0.000 C 
ATOM    120  H19 UNL A   1       6.350  -4.215  30.012  1.00  0.00    +0.000 H 
BRANCH   30   29
ATOM     29  C20 UNL A   1       4.968  -2.651  30.415  1.00  0.00    +0.000 C 
ATOM    118  H17 UNL A   1       5.579  -2.406  31.258  1.00  0.00    +0.000 H 
ATOM    119  H18 UNL A   1       5.164  -2.023  29.572  1.00  0.00    +0.000 H 
BRANCH   29   28
ATOM    116  H15 UNL A   1       2.984  -3.371  30.758  1.00  0.00    +0.000 H 
ATOM     28  C19 UNL A   1       3.501  -2.436  30.802  1.00  0.00    +0.000 C 
ATOM    117  H16 UNL A   1       3.457  -2.041  31.796  1.00  0.00    +0.000 H 
BRANCH   28   27
ATOM     27  N7  UNL A   1       2.875  -1.499  29.892  1.00  0.00    +0.000 N 
ATOM    115  H14 UNL A   1       1.992  -1.191  30.201  1.00  0.00    +0.000 H 
BRANCH   27   25
ATOM     25  C18 UNL A   1       3.246  -0.949  28.693  1.00  0.00    +0.000 C 
ATOM     26  O2  UNL A   1       3.795   0.155  28.734  1.00  0.00    +0.000 O 
BRANCH   25   24
ATOM    100  C70 UNL A   1       2.359  -0.907  26.287  1.00  0.00    +0.000 C 
ATOM    101  C71 UNL A   1       2.262  -1.529  25.035  1.00  0.00    +0.000 C 
ATOM    143  H42 UNL A   1       1.979   0.043  26.414  1.00  0.00    +0.000 H 
ATOM    144  H43 UNL A   1       1.886  -1.010  24.227  1.00  0.00    +0.000 H 
ATOM    113  H12 UNL A   1       3.364  -4.580  25.897  1.00  0.00    +0.000 H 
ATOM    114  H13 UNL A   1       3.722  -3.429  28.004  1.00  0.00    +0.000 H 
ATOM     21  C14 UNL A   1       2.677  -2.858  24.884  1.00  0.00    +0.000 C 
ATOM     22  C15 UNL A   1       3.147  -3.575  25.983  1.00  0.00    +0.000 C 
ATOM     23  C16 UNL A   1       3.322  -2.914  27.203  1.00  0.00    +0.000 C 
ATOM     24  C17 UNL A   1       2.964  -1.562  27.362  1.00  0.00    +0.000 C 
BRANCH   21   20
ATOM      2  C2  UNL A   1       3.488  -3.486  22.583  1.00  0.00    +0.000 C 
ATOM      3  C3  UNL A   1       2.772  -4.055  21.549  1.00  0.00    +0.000 C 
ATOM     18  N4  UNL A   1       1.561  -4.492  21.996  1.00  0.00    +0.000 N 
ATOM     19  N5  UNL A   1       1.487  -4.215  23.293  1.00  0.00    +0.000 N 
ATOM     20  N6  UNL A   1       2.582  -3.491  23.628  1.00  0.00    +0.000 N 
BRANCH    2    1
ATOM      1  C1  UNL A   1       4.915  -3.101  22.673  1.00  0.00    +0.000 C 
ATOM    102  H1  UNL A   1       5.515  -3.836  22.175  1.00  0.00    +0.000 H 
ATOM    103  H2  UNL A   1       5.205  -3.041  23.700  1.00  0.00    +0.000 H 
ATOM    104  H3  UNL A   1       5.058  -2.149  22.206  1.00  0.00    +0.000 H 
ENDBRANCH    2    1
BRANCH    3    4
ATOM      4  C4  UNL A   1       3.218  -4.286  20.180  1.00  0.00    +0.000 C 
ATOM      5  N1  UNL A   1       3.907  -5.378  19.831  1.00  0.00    +0.000 N 
ATOM      6  N2  UNL A   1       4.295  -5.139  18.559  1.00  0.00    +0.000 N 
ATOM     13  C11 UNL A   1       3.821  -3.933  18.096  1.00  0.00    +0.000 C 
ATOM     14  C12 UNL A   1       3.064  -3.375  19.109  1.00  0.00    +0.000 C 
ATOM    110  H9  UNL A   1       3.997  -3.522  17.166  1.00  0.00    +0.000 H 
BRANCH    6    7
ATOM      7  C5  UNL A   1       5.114  -6.058  17.865  1.00  0.00    +0.000 C 
ATOM      8  C6  UNL A   1       5.863  -6.991  18.593  1.00  0.00    +0.000 C 
ATOM      9  C7  UNL A   1       6.648  -7.924  17.917  1.00  0.00    +0.000 C 
ATOM    105  H4  UNL A   1       5.833  -6.988  19.624  1.00  0.00    +0.000 H 
ATOM     11  C9  UNL A   1       6.012  -6.938  15.802  1.00  0.00    +0.000 C 
ATOM     12  C10 UNL A   1       5.179  -6.035  16.466  1.00  0.00    +0.000 C 
ATOM    109  H8  UNL A   1       4.617  -5.355  15.930  1.00  0.00    +0.000 H 
ATOM     10  C8  UNL A   1       6.733  -7.890  16.525  1.00  0.00    +0.000 C 
ATOM    106  H5  UNL A   1       7.169  -8.641  18.447  1.00  0.00    +0.000 H 
ATOM    108  H7  UNL A   1       6.094  -6.901  14.774  1.00  0.00    +0.000 H 
ATOM    107  H6  UNL A   1       7.329  -8.570  16.028  1.00  0.00    +0.000 H 
ENDBRANCH    6    7
BRANCH   14   15
ATOM    111  H10 UNL A   1       1.564  -2.057  18.311  1.00  0.00    +0.000 H 
ATOM     15  C13 UNL A   1       2.328  -2.141  19.000  1.00  0.00    +0.000 C 
BRANCH   15   16
ATOM     16  N3  UNL A   1       2.622  -1.141  19.763  1.00  0.00    +0.000 N 
BRANCH   16   17
ATOM     17  O1  UNL A   1       4.002  -0.910  19.707  1.00  0.00    +0.000 O 
ATOM    112  H11 UNL A   1       4.389  -0.568  18.925  1.00  0.00    +0.000 H 
ENDBRANCH   16   17
ENDBRANCH   15   16
ENDBRANCH   14   15
ENDBRANCH    3    4
ENDBRANCH   21   20
ENDBRANCH   25   24
ENDBRANCH   27   25
ENDBRANCH   28   27
ENDBRANCH   29   28
ENDBRANCH   30   29
ENDBRANCH   31   30
ENDBRANCH   32   31
ENDBRANCH   33   32
ENDBRANCH   34   33
ENDBRANCH   35   34
ENDBRANCH   37   35
ENDBRANCH   41   40
BRANCH   45   46
ATOM     46  C34 UNL A   1       8.545  -4.629  19.395  1.00  0.00    +0.000 C 
ATOM     47  C35 UNL A   1       9.077  -5.215  18.225  1.00  0.00    +0.000 C 
ATOM     48  F1  UNL A   1       9.962  -6.221  18.305  1.00  0.00    +0.000 F 
ATOM     49  C36 UNL A   1       8.796  -4.715  16.950  1.00  0.00    +0.000 C 
ATOM     50  F2  UNL A   1       9.435  -5.213  15.882  1.00  0.00    +0.000 F 
ATOM     51  C37 UNL A   1       7.923  -3.656  16.790  1.00  0.00    +0.000 C 
ATOM     52  F3  UNL A   1       7.705  -3.129  15.577  1.00  0.00    +0.000 F 
ATOM     53  C38 UNL A   1       7.314  -3.112  17.900  1.00  0.00    +0.000 C 
ATOM     54  F4  UNL A   1       6.474  -2.075  17.766  1.00  0.00    +0.000 F 
ATOM     55  C39 UNL A   1       7.633  -3.574  19.178  1.00  0.00    +0.000 C 
ATOM     56  F5  UNL A   1       7.098  -2.874  20.184  1.00  0.00    +0.000 F 
ENDBRANCH   45   46
BRANCH   62   63
ATOM     65  F6  UNL A   1      11.028  -2.845  25.446  1.00  0.00    +0.000 F 
ATOM     66  C47 UNL A   1      12.750  -1.514  26.315  1.00  0.00    +0.000 C 
ATOM     67  F7  UNL A   1      12.720  -2.225  27.451  1.00  0.00    +0.000 F 
ATOM     68  C48 UNL A   1      13.696  -0.514  26.152  1.00  0.00    +0.000 C 
ATOM     69  F8  UNL A   1      14.584  -0.263  27.124  1.00  0.00    +0.000 F 
ATOM     70  C49 UNL A   1      13.737   0.208  24.970  1.00  0.00    +0.000 C 
ATOM     71  F9  UNL A   1      14.682   1.140  24.787  1.00  0.00    +0.000 F 
ATOM     72  C50 UNL A   1      12.815  -0.049  23.961  1.00  0.00    +0.000 C 
ATOM     73  F10 UNL A   1      12.894   0.655  22.820  1.00  0.00    +0.000 F 
ATOM     63  C45 UNL A   1      11.847  -1.054  24.099  1.00  0.00    +0.000 C 
ATOM     64  C46 UNL A   1      11.854  -1.801  25.288  1.00  0.00    +0.000 C 
ENDBRANCH   62   63
BRANCH   77   78
ATOM     78  C54 UNL A   1       5.983   1.016  25.058  1.00  0.00    +0.000 C 
ATOM     79  C55 UNL A   1       6.198   2.132  25.881  1.00  0.00    +0.000 C 
ATOM     80  F11 UNL A   1       7.296   2.203  26.646  1.00  0.00    +0.000 F 
ATOM     81  C56 UNL A   1       5.321   3.220  25.880  1.00  0.00    +0.000 C 
ATOM     82  F12 UNL A   1       5.588   4.294  26.635  1.00  0.00    +0.000 F 
ATOM     83  C57 UNL A   1       4.200   3.217  25.063  1.00  0.00    +0.000 C 
ATOM     84  F13 UNL A   1       3.389   4.284  25.023  1.00  0.00    +0.000 F 
ATOM     85  C58 UNL A   1       3.948   2.122  24.259  1.00  0.00    +0.000 C 
ATOM     86  F14 UNL A   1       2.887   2.121  23.440  1.00  0.00    +0.000 F 
ATOM     87  C59 UNL A   1       4.829   1.041  24.252  1.00  0.00    +0.000 C 
ATOM     88  F15 UNL A   1       4.581   0.056  23.376  1.00  0.00    +0.000 F 
ENDBRANCH   77   78
TORSDOF 22
ENDMDL
MODEL 9
REMARK VINA RESULT:      -9.9     44.503     51.856
ROOT
ATOM    131  H30 UNL A   1      22.629  30.950  46.635  1.00  0.00    +0.000 H 
ATOM    132  H31 UNL A   1      25.080  31.586  45.814  1.00  0.00    +0.000 H 
ATOM    133  H32 UNL A   1      22.463  34.327  44.424  1.00  0.00    +0.000 H 
ATOM    134  H33 UNL A   1      26.516  39.046  49.666  1.00  0.00    +0.000 H 
ATOM    135  H34 UNL A   1      25.881  37.133  51.223  1.00  0.00    +0.000 H 
ATOM    136  H35 UNL A   1      24.196  36.297  47.516  1.00  0.00    +0.000 H 
ATOM    137  H36 UNL A   1      23.054  38.575  45.347  1.00  0.00    +0.000 H 
ATOM    138  H37 UNL A   1      22.871  36.217  44.322  1.00  0.00    +0.000 H 
ATOM    139  H38 UNL A   1      19.459  34.414  48.985  1.00  0.00    +0.000 H 
ATOM    140  H39 UNL A   1      20.889  35.758  50.644  1.00  0.00    +0.000 H 
ATOM     41  C30 UNL A   1      23.713  35.527  50.166  1.00  0.00    +0.000 C 
ATOM     42  C31 UNL A   1      22.585  34.927  49.383  1.00  0.00    +0.000 C 
ATOM     43  N9  UNL A   1      22.643  34.135  48.359  1.00  0.00    +0.000 N 
ATOM     44  C32 UNL A   1      21.327  33.966  47.923  1.00  0.00    +0.000 C 
ATOM     45  C33 UNL A   1      21.037  33.588  46.647  1.00  0.00    +0.000 C 
ATOM     57  C40 UNL A   1      22.168  32.972  46.008  1.00  0.00    +0.000 C 
ATOM     58  C41 UNL A   1      22.936  31.848  46.230  1.00  0.00    +0.000 C 
ATOM     59  C42 UNL A   1      24.245  32.191  45.779  1.00  0.00    +0.000 C 
ATOM     60  C43 UNL A   1      24.193  33.495  45.280  1.00  0.00    +0.000 C 
ATOM     61  N10 UNL A   1      22.859  33.725  45.096  1.00  0.00    +0.000 N 
ATOM     62  C44 UNL A   1      25.200  34.517  45.125  1.00  0.00    +0.000 C 
ATOM     74  C51 UNL A   1      24.935  35.851  45.010  1.00  0.00    +0.000 C 
ATOM     75  N11 UNL A   1      25.848  36.789  45.464  1.00  0.00    +0.000 N 
ATOM     76  C52 UNL A   1      25.119  37.802  45.843  1.00  0.00    +0.000 C 
ATOM     77  C53 UNL A   1      25.472  38.690  46.974  1.00  0.00    +0.000 C 
ATOM     89  C60 UNL A   1      25.380  37.958  48.108  1.00  0.00    +0.000 C 
ATOM     90  C61 UNL A   1      25.929  38.235  49.417  1.00  0.00    +0.000 C 
ATOM     91  C62 UNL A   1      25.546  37.254  50.254  1.00  0.00    +0.000 C 
ATOM     92  C63 UNL A   1      24.581  36.381  49.579  1.00  0.00    +0.000 C 
ATOM     93  N12 UNL A   1      24.629  36.778  48.258  1.00  0.00    +0.000 N 
ATOM     94  C64 UNL A   1      23.762  37.826  45.323  1.00  0.00    +0.000 C 
ATOM     95  C65 UNL A   1      23.699  36.596  44.809  1.00  0.00    +0.000 C 
ATOM     96  C66 UNL A   1      20.484  34.521  48.947  1.00  0.00    +0.000 C 
ATOM     97  C67 UNL A   1      21.208  35.196  49.840  1.00  0.00    +0.000 C 
ENDROOT
BRANCH   41   40
ATOM    129  H28 UNL A   1      22.143  36.771  54.296  1.00  0.00    +0.000 H 
ATOM     98  C68 UNL A   1      24.572  34.597  52.295  1.00  0.00    +0.000 C 
ATOM     99  C69 UNL A   1      24.586  34.548  53.673  1.00  0.00    +0.000 C 
ATOM    130  H29 UNL A   1      21.999  36.718  51.866  1.00  0.00    +0.000 H 
ATOM     37  C26 UNL A   1      23.761  35.411  54.391  1.00  0.00    +0.000 C 
ATOM     38  C27 UNL A   1      22.794  36.187  53.747  1.00  0.00    +0.000 C 
ATOM     39  C28 UNL A   1      22.721  36.166  52.356  1.00  0.00    +0.000 C 
ATOM     40  C29 UNL A   1      23.630  35.389  51.627  1.00  0.00    +0.000 C 
ATOM    141  H40 UNL A   1      25.259  34.048  51.754  1.00  0.00    +0.000 H 
ATOM    142  H41 UNL A   1      25.200  33.881  54.166  1.00  0.00    +0.000 H 
BRANCH   37   35
ATOM     35  C25 UNL A   1      23.957  35.544  55.846  1.00  0.00    +0.000 C 
ATOM     36  O3  UNL A   1      25.075  35.534  56.322  1.00  0.00    +0.000 O 
BRANCH   35   34
ATOM     34  N8  UNL A   1      22.839  35.659  56.651  1.00  0.00    +0.000 N 
ATOM    128  H27 UNL A   1      22.427  36.550  56.710  1.00  0.00    +0.000 H 
BRANCH   34   33
ATOM     33  C24 UNL A   1      22.206  34.593  57.424  1.00  0.00    +0.000 C 
ATOM    126  H25 UNL A   1      22.959  34.065  57.969  1.00  0.00    +0.000 H 
ATOM    127  H26 UNL A   1      21.496  35.038  58.090  1.00  0.00    +0.000 H 
BRANCH   33   32
ATOM    124  H23 UNL A   1      20.543  33.349  56.993  1.00  0.00    +0.000 H 
ATOM    125  H24 UNL A   1      21.319  34.104  55.582  1.00  0.00    +0.000 H 
ATOM     32  C23 UNL A   1      21.467  33.614  56.522  1.00  0.00    +0.000 C 
BRANCH   32   31
ATOM    122  H21 UNL A   1      21.564  31.599  55.859  1.00  0.00    +0.000 H 
ATOM    123  H22 UNL A   1      23.020  32.600  55.544  1.00  0.00    +0.000 H 
ATOM     31  C22 UNL A   1      22.252  32.326  56.237  1.00  0.00    +0.000 C 
BRANCH   31   30
ATOM    121  H20 UNL A   1      22.508  32.116  58.310  1.00  0.00    +0.000 H 
ATOM     30  C21 UNL A   1      22.979  31.705  57.441  1.00  0.00    +0.000 C 
ATOM    120  H19 UNL A   1      24.018  31.946  57.358  1.00  0.00    +0.000 H 
BRANCH   30   29
ATOM     29  C20 UNL A   1      22.857  30.180  57.576  1.00  0.00    +0.000 C 
ATOM    118  H17 UNL A   1      23.662  29.727  57.036  1.00  0.00    +0.000 H 
ATOM    119  H18 UNL A   1      22.888  29.953  58.621  1.00  0.00    +0.000 H 
BRANCH   29   28
ATOM    116  H15 UNL A   1      20.789  29.680  57.799  1.00  0.00    +0.000 H 
ATOM     28  C19 UNL A   1      21.537  29.619  57.036  1.00  0.00    +0.000 C 
ATOM    117  H16 UNL A   1      21.236  30.192  56.184  1.00  0.00    +0.000 H 
BRANCH   28   27
ATOM     27  N7  UNL A   1      21.706  28.235  56.640  1.00  0.00    +0.000 N 
ATOM    115  H14 UNL A   1      22.098  28.136  55.742  1.00  0.00    +0.000 H 
BRANCH   27   25
ATOM     25  C18 UNL A   1      21.436  27.035  57.245  1.00  0.00    +0.000 C 
ATOM     26  O2  UNL A   1      20.307  26.894  57.720  1.00  0.00    +0.000 O 
BRANCH   25   24
ATOM    100  C70 UNL A   1      22.514  25.100  58.537  1.00  0.00    +0.000 C 
ATOM    101  C71 UNL A   1      23.399  24.013  58.549  1.00  0.00    +0.000 C 
ATOM    143  H42 UNL A   1      21.917  25.280  59.359  1.00  0.00    +0.000 H 
ATOM    144  H43 UNL A   1      23.396  23.353  59.340  1.00  0.00    +0.000 H 
ATOM    113  H12 UNL A   1      25.038  24.661  55.692  1.00  0.00    +0.000 H 
ATOM    114  H13 UNL A   1      23.361  26.414  55.584  1.00  0.00    +0.000 H 
ATOM     21  C14 UNL A   1      24.287  23.828  57.483  1.00  0.00    +0.000 C 
ATOM     22  C15 UNL A   1      24.322  24.742  56.431  1.00  0.00    +0.000 C 
ATOM     23  C16 UNL A   1      23.373  25.768  56.390  1.00  0.00    +0.000 C 
ATOM     24  C17 UNL A   1      22.433  25.940  57.424  1.00  0.00    +0.000 C 
BRANCH   21   20
ATOM      2  C2  UNL A   1      26.486  22.686  57.938  1.00  0.00    +0.000 C 
ATOM      3  C3  UNL A   1      26.926  21.461  57.479  1.00  0.00    +0.000 C 
ATOM     18  N4  UNL A   1      25.898  20.773  56.907  1.00  0.00    +0.000 N 
ATOM     19  N5  UNL A   1      24.811  21.532  56.992  1.00  0.00    +0.000 N 
ATOM     20  N6  UNL A   1      25.181  22.737  57.488  1.00  0.00    +0.000 N 
BRANCH    2    1
ATOM      1  C1  UNL A   1      27.136  23.671  58.833  1.00  0.00    +0.000 C 
ATOM    102  H1  UNL A   1      27.413  23.192  59.750  1.00  0.00    +0.000 H 
ATOM    103  H2  UNL A   1      26.453  24.469  59.042  1.00  0.00    +0.000 H 
ATOM    104  H3  UNL A   1      28.009  24.065  58.358  1.00  0.00    +0.000 H 
ENDBRANCH    2    1
BRANCH    3    4
ATOM      4  C4  UNL A   1      28.252  20.876  57.636  1.00  0.00    +0.000 C 
ATOM      5  N1  UNL A   1      29.260  21.165  56.805  1.00  0.00    +0.000 N 
ATOM      6  N2  UNL A   1      30.239  20.301  57.151  1.00  0.00    +0.000 N 
ATOM     13  C11 UNL A   1      29.872  19.507  58.213  1.00  0.00    +0.000 C 
ATOM     14  C12 UNL A   1      28.601  19.895  58.594  1.00  0.00    +0.000 C 
ATOM    110  H9  UNL A   1      30.440  18.762  58.645  1.00  0.00    +0.000 H 
BRANCH    6    7
ATOM      7  C5  UNL A   1      31.459  20.262  56.437  1.00  0.00    +0.000 C 
ATOM      8  C6  UNL A   1      31.507  20.785  55.140  1.00  0.00    +0.000 C 
ATOM      9  C7  UNL A   1      32.713  20.783  54.438  1.00  0.00    +0.000 C 
ATOM    105  H4  UNL A   1      30.656  21.172  54.704  1.00  0.00    +0.000 H 
ATOM     11  C9  UNL A   1      33.792  19.657  56.286  1.00  0.00    +0.000 C 
ATOM     12  C10 UNL A   1      32.604  19.704  57.018  1.00  0.00    +0.000 C 
ATOM    109  H8  UNL A   1      32.571  19.331  57.980  1.00  0.00    +0.000 H 
ATOM     10  C8  UNL A   1      33.851  20.208  55.006  1.00  0.00    +0.000 C 
ATOM    106  H5  UNL A   1      32.764  21.206  53.498  1.00  0.00    +0.000 H 
ATOM    108  H7  UNL A   1      34.630  19.212  56.694  1.00  0.00    +0.000 H 
ATOM    107  H6  UNL A   1      34.737  20.192  54.478  1.00  0.00    +0.000 H 
ENDBRANCH    6    7
BRANCH   14   15
ATOM    111  H10 UNL A   1      26.874  19.548  59.826  1.00  0.00    +0.000 H 
ATOM     15  C13 UNL A   1      27.883  19.359  59.721  1.00  0.00    +0.000 C 
BRANCH   15   16
ATOM     16  N3  UNL A   1      28.499  18.642  60.602  1.00  0.00    +0.000 N 
BRANCH   16   17
ATOM     17  O1  UNL A   1      27.804  17.440  60.786  1.00  0.00    +0.000 O 
ATOM    112  H11 UNL A   1      27.096  17.216  60.215  1.00  0.00    +0.000 H 
ENDBRANCH   16   17
ENDBRANCH   15   16
ENDBRANCH   14   15
ENDBRANCH    3    4
ENDBRANCH   21   20
ENDBRANCH   25   24
ENDBRANCH   27   25
ENDBRANCH   28   27
ENDBRANCH   29   28
ENDBRANCH   30   29
ENDBRANCH   31   30
ENDBRANCH   32   31
ENDBRANCH   33   32
ENDBRANCH   34   33
ENDBRANCH   35   34
ENDBRANCH   37   35
ENDBRANCH   41   40
BRANCH   45   46
ATOM     46  C34 UNL A   1      19.870  34.126  45.836  1.00  0.00    +0.000 C 
ATOM     47  C35 UNL A   1      19.667  35.522  45.767  1.00  0.00    +0.000 C 
ATOM     48  F1  UNL A   1      20.631  36.373  46.150  1.00  0.00    +0.000 F 
ATOM     49  C36 UNL A   1      18.435  36.076  45.406  1.00  0.00    +0.000 C 
ATOM     50  F2  UNL A   1      18.249  37.401  45.492  1.00  0.00    +0.000 F 
ATOM     51  C37 UNL A   1      17.383  35.262  45.036  1.00  0.00    +0.000 C 
ATOM     52  F3  UNL A   1      16.181  35.785  44.756  1.00  0.00    +0.000 F 
ATOM     53  C38 UNL A   1      17.567  33.896  45.004  1.00  0.00    +0.000 C 
ATOM     54  F4  UNL A   1      16.553  33.089  44.661  1.00  0.00    +0.000 F 
ATOM     55  C39 UNL A   1      18.777  33.337  45.416  1.00  0.00    +0.000 C 
ATOM     56  F5  UNL A   1      18.791  32.002  45.488  1.00  0.00    +0.000 F 
ENDBRANCH   45   46
BRANCH   62   63
ATOM     65  F6  UNL A   1      27.280  34.225  43.082  1.00  0.00    +0.000 F 
ATOM     66  C47 UNL A   1      28.913  33.670  44.667  1.00  0.00    +0.000 C 
ATOM     67  F7  UNL A   1      29.814  33.533  43.684  1.00  0.00    +0.000 F 
ATOM     68  C48 UNL A   1      29.307  33.525  45.988  1.00  0.00    +0.000 C 
ATOM     69  F8  UNL A   1      30.586  33.256  46.284  1.00  0.00    +0.000 F 
ATOM     70  C49 UNL A   1      28.378  33.685  47.005  1.00  0.00    +0.000 C 
ATOM     71  F9  UNL A   1      28.763  33.597  48.285  1.00  0.00    +0.000 F 
ATOM     72  C50 UNL A   1      27.049  33.962  46.700  1.00  0.00    +0.000 C 
ATOM     73  F10 UNL A   1      26.178  34.130  47.709  1.00  0.00    +0.000 F 
ATOM     63  C45 UNL A   1      26.623  34.113  45.373  1.00  0.00    +0.000 C 
ATOM     64  C46 UNL A   1      27.592  33.989  44.364  1.00  0.00    +0.000 C 
ENDBRANCH   62   63
BRANCH   77   78
ATOM     78  C54 UNL A   1      25.631  40.152  46.835  1.00  0.00    +0.000 C 
ATOM     79  C55 UNL A   1      24.661  41.041  47.321  1.00  0.00    +0.000 C 
ATOM     80  F11 UNL A   1      23.480  40.576  47.755  1.00  0.00    +0.000 F 
ATOM     81  C56 UNL A   1      24.912  42.411  47.427  1.00  0.00    +0.000 C 
ATOM     82  F12 UNL A   1      23.983  43.223  47.950  1.00  0.00    +0.000 F 
ATOM     83  C57 UNL A   1      26.139  42.931  47.043  1.00  0.00    +0.000 C 
ATOM     84  F13 UNL A   1      26.398  44.238  47.196  1.00  0.00    +0.000 F 
ATOM     85  C58 UNL A   1      27.107  42.085  46.537  1.00  0.00    +0.000 C 
ATOM     86  F14 UNL A   1      28.309  42.571  46.194  1.00  0.00    +0.000 F 
ATOM     87  C59 UNL A   1      26.860  40.716  46.441  1.00  0.00    +0.000 C 
ATOM     88  F15 UNL A   1      27.876  39.939  46.038  1.00  0.00    +0.000 F 
ENDBRANCH   77   78
TORSDOF 22
ENDMDL
MODEL 10
REMARK VINA RESULT:      -9.8     43.669     49.914
ROOT
ATOM    131  H30 UNL A   1      19.207  37.624  44.296  1.00  0.00    +0.000 H 
ATOM    132  H31 UNL A   1      18.103  38.530  46.542  1.00  0.00    +0.000 H 
ATOM    133  H32 UNL A   1      19.220  34.688  47.071  1.00  0.00    +0.000 H 
ATOM    134  H33 UNL A   1      24.544  38.219  52.107  1.00  0.00    +0.000 H 
ATOM    135  H34 UNL A   1      25.010  39.559  49.992  1.00  0.00    +0.000 H 
ATOM    136  H35 UNL A   1      22.152  36.701  49.019  1.00  0.00    +0.000 H 
ATOM    137  H36 UNL A   1      21.944  33.637  50.346  1.00  0.00    +0.000 H 
ATOM    138  H37 UNL A   1      19.976  34.029  48.727  1.00  0.00    +0.000 H 
ATOM    139  H38 UNL A   1      23.858  35.186  44.230  1.00  0.00    +0.000 H 
ATOM    140  H39 UNL A   1      25.420  36.474  45.813  1.00  0.00    +0.000 H 
ATOM     41  C30 UNL A   1      24.028  38.232  47.610  1.00  0.00    +0.000 C 
ATOM     42  C31 UNL A   1      23.452  37.300  46.588  1.00  0.00    +0.000 C 
ATOM     43  N9  UNL A   1      22.210  37.128  46.260  1.00  0.00    +0.000 N 
ATOM     44  C32 UNL A   1      22.190  36.064  45.355  1.00  0.00    +0.000 C 
ATOM     45  C33 UNL A   1      21.068  35.320  45.147  1.00  0.00    +0.000 C 
ATOM     57  C40 UNL A   1      19.886  36.014  45.578  1.00  0.00    +0.000 C 
ATOM     58  C41 UNL A   1      19.245  37.185  45.229  1.00  0.00    +0.000 C 
ATOM     59  C42 UNL A   1      18.648  37.661  46.434  1.00  0.00    +0.000 C 
ATOM     60  C43 UNL A   1      18.932  36.737  47.442  1.00  0.00    +0.000 C 
ATOM     61  N10 UNL A   1      19.324  35.618  46.762  1.00  0.00    +0.000 N 
ATOM     62  C44 UNL A   1      19.014  36.858  48.878  1.00  0.00    +0.000 C 
ATOM     74  C51 UNL A   1      19.688  35.993  49.689  1.00  0.00    +0.000 C 
ATOM     75  N11 UNL A   1      20.241  36.434  50.880  1.00  0.00    +0.000 N 
ATOM     76  C52 UNL A   1      21.293  35.682  51.054  1.00  0.00    +0.000 C 
ATOM     77  C53 UNL A   1      22.539  36.150  51.701  1.00  0.00    +0.000 C 
ATOM     89  C60 UNL A   1      23.100  37.070  50.883  1.00  0.00    +0.000 C 
ATOM     90  C61 UNL A   1      24.114  38.056  51.183  1.00  0.00    +0.000 C 
ATOM     91  C62 UNL A   1      24.403  38.726  50.053  1.00  0.00    +0.000 C 
ATOM     92  C63 UNL A   1      23.722  38.093  48.919  1.00  0.00    +0.000 C 
ATOM     93  N12 UNL A   1      22.854  37.193  49.504  1.00  0.00    +0.000 N 
ATOM     94  C64 UNL A   1      21.318  34.454  50.278  1.00  0.00    +0.000 C 
ATOM     95  C65 UNL A   1      20.297  34.691  49.450  1.00  0.00    +0.000 C 
ATOM     96  C66 UNL A   1      23.559  35.812  44.993  1.00  0.00    +0.000 C 
ATOM     97  C67 UNL A   1      24.389  36.498  45.780  1.00  0.00    +0.000 C 
ENDROOT
BRANCH   41   40
ATOM    129  H28 UNL A   1      25.796  42.081  45.842  1.00  0.00    +0.000 H 
ATOM     98  C68 UNL A   1      26.409  38.479  46.973  1.00  0.00    +0.000 C 
ATOM     99  C69 UNL A   1      27.446  39.216  46.441  1.00  0.00    +0.000 C 
ATOM    130  H29 UNL A   1      24.016  40.841  46.947  1.00  0.00    +0.000 H 
ATOM     37  C26 UNL A   1      27.189  40.493  45.949  1.00  0.00    +0.000 C 
ATOM     38  C27 UNL A   1      25.952  41.108  46.151  1.00  0.00    +0.000 C 
ATOM     39  C28 UNL A   1      24.930  40.394  46.773  1.00  0.00    +0.000 C 
ATOM     40  C29 UNL A   1      25.152  39.067  47.161  1.00  0.00    +0.000 C 
ATOM    141  H40 UNL A   1      26.560  37.492  47.234  1.00  0.00    +0.000 H 
ATOM    142  H41 UNL A   1      28.401  38.825  46.408  1.00  0.00    +0.000 H 
BRANCH   37   35
ATOM     35  C25 UNL A   1      28.226  41.177  45.153  1.00  0.00    +0.000 C 
ATOM     36  O3  UNL A   1      28.558  40.740  44.069  1.00  0.00    +0.000 O 
BRANCH   35   34
ATOM     34  N8  UNL A   1      28.819  42.308  45.680  1.00  0.00    +0.000 N 
ATOM    128  H27 UNL A   1      28.322  43.152  45.586  1.00  0.00    +0.000 H 
BRANCH   34   33
ATOM     33  C24 UNL A   1      30.108  42.381  46.363  1.00  0.00    +0.000 C 
ATOM    126  H25 UNL A   1      30.887  42.417  45.630  1.00  0.00    +0.000 H 
ATOM    127  H26 UNL A   1      30.117  43.262  46.970  1.00  0.00    +0.000 H 
BRANCH   33   32
ATOM    124  H23 UNL A   1      29.727  40.367  46.905  1.00  0.00    +0.000 H 
ATOM    125  H24 UNL A   1      31.376  40.948  47.235  1.00  0.00    +0.000 H 
ATOM     32  C23 UNL A   1      30.330  41.174  47.265  1.00  0.00    +0.000 C 
BRANCH   32   31
ATOM    122  H21 UNL A   1      29.942  40.483  49.235  1.00  0.00    +0.000 H 
ATOM    123  H22 UNL A   1      30.716  42.098  49.108  1.00  0.00    +0.000 H 
ATOM     31  C22 UNL A   1      29.968  41.429  48.735  1.00  0.00    +0.000 C 
BRANCH   31   30
ATOM    121  H20 UNL A   1      28.259  42.414  48.015  1.00  0.00    +0.000 H 
ATOM     30  C21 UNL A   1      28.622  42.131  48.981  1.00  0.00    +0.000 C 
ATOM    120  H19 UNL A   1      28.797  42.959  49.636  1.00  0.00    +0.000 H 
BRANCH   30   29
ATOM     29  C20 UNL A   1      27.523  41.257  49.605  1.00  0.00    +0.000 C 
ATOM    118  H17 UNL A   1      27.289  40.469  48.920  1.00  0.00    +0.000 H 
ATOM    119  H18 UNL A   1      27.905  40.890  50.535  1.00  0.00    +0.000 H 
BRANCH   29   28
ATOM    116  H15 UNL A   1      25.403  41.508  49.487  1.00  0.00    +0.000 H 
ATOM     28  C19 UNL A   1      26.234  42.023  49.922  1.00  0.00    +0.000 C 
ATOM    117  H16 UNL A   1      26.114  42.080  50.983  1.00  0.00    +0.000 H 
BRANCH   28   27
ATOM     27  N7  UNL A   1      26.303  43.365  49.380  1.00  0.00    +0.000 N 
ATOM    115  H14 UNL A   1      27.028  43.903  49.774  1.00  0.00    +0.000 H 
BRANCH   27   25
ATOM     25  C18 UNL A   1      25.577  44.047  48.439  1.00  0.00    +0.000 C 
ATOM     26  O2  UNL A   1      26.191  44.451  47.449  1.00  0.00    +0.000 O 
BRANCH   25   24
ATOM    100  C70 UNL A   1      23.590  45.223  49.556  1.00  0.00    +0.000 C 
ATOM    101  C71 UNL A   1      22.239  45.588  49.517  1.00  0.00    +0.000 C 
ATOM    143  H42 UNL A   1      24.192  45.575  50.317  1.00  0.00    +0.000 H 
ATOM    144  H43 UNL A   1      21.866  46.268  50.197  1.00  0.00    +0.000 H 
ATOM    113  H12 UNL A   1      21.246  43.594  47.007  1.00  0.00    +0.000 H 
ATOM    114  H13 UNL A   1      23.628  43.130  46.952  1.00  0.00    +0.000 H 
ATOM     21  C14 UNL A   1      21.394  45.028  48.551  1.00  0.00    +0.000 C 
ATOM     22  C15 UNL A   1      21.885  44.078  47.656  1.00  0.00    +0.000 C 
ATOM     23  C16 UNL A   1      23.254  43.792  47.650  1.00  0.00    +0.000 C 
ATOM     24  C17 UNL A   1      24.131  44.387  48.576  1.00  0.00    +0.000 C 
BRANCH   21   20
ATOM      2  C2  UNL A   1      19.472  46.631  48.268  1.00  0.00    +0.000 C 
ATOM      3  C3  UNL A   1      18.141  46.436  48.578  1.00  0.00    +0.000 C 
ATOM     18  N4  UNL A   1      17.907  45.123  48.854  1.00  0.00    +0.000 N 
ATOM     19  N5  UNL A   1      19.060  44.474  48.725  1.00  0.00    +0.000 N 
ATOM     20  N6  UNL A   1      20.032  45.390  48.505  1.00  0.00    +0.000 N 
BRANCH    2    1
ATOM      1  C1  UNL A   1      20.163  47.796  47.667  1.00  0.00    +0.000 C 
ATOM    102  H1  UNL A   1      20.137  47.714  46.599  1.00  0.00    +0.000 H 
ATOM    103  H2  UNL A   1      21.180  47.818  47.998  1.00  0.00    +0.000 H 
ATOM    104  H3  UNL A   1      19.671  48.697  47.968  1.00  0.00    +0.000 H 
ENDBRANCH    2    1
BRANCH    3    4
ATOM      4  C4  UNL A   1      17.065  47.419  48.538  1.00  0.00    +0.000 C 
ATOM      5  N1  UNL A   1      16.020  47.296  47.712  1.00  0.00    +0.000 N 
ATOM      6  N2  UNL A   1      15.360  48.469  47.828  1.00  0.00    +0.000 N 
ATOM     13  C11 UNL A   1      15.954  49.304  48.746  1.00  0.00    +0.000 C 
ATOM     14  C12 UNL A   1      17.038  48.627  49.273  1.00  0.00    +0.000 C 
ATOM    110  H9  UNL A   1      15.646  50.257  48.995  1.00  0.00    +0.000 H 
BRANCH    6    7
ATOM      7  C5  UNL A   1      14.216  48.739  47.041  1.00  0.00    +0.000 C 
ATOM      8  C6  UNL A   1      12.992  48.976  47.676  1.00  0.00    +0.000 C 
ATOM      9  C7  UNL A   1      11.864  49.276  46.912  1.00  0.00    +0.000 C 
ATOM    105  H4  UNL A   1      12.923  48.930  48.705  1.00  0.00    +0.000 H 
ATOM     11  C9  UNL A   1      13.159  49.013  44.887  1.00  0.00    +0.000 C 
ATOM     12  C10 UNL A   1      14.306  48.766  45.644  1.00  0.00    +0.000 C 
ATOM    109  H8  UNL A   1      15.212  48.604  45.177  1.00  0.00    +0.000 H 
ATOM     10  C8  UNL A   1      11.945  49.282  45.520  1.00  0.00    +0.000 C 
ATOM    106  H5  UNL A   1      10.968  49.494  47.377  1.00  0.00    +0.000 H 
ATOM    108  H7  UNL A   1      13.210  48.996  43.856  1.00  0.00    +0.000 H 
ATOM    107  H6  UNL A   1      11.105  49.487  44.956  1.00  0.00    +0.000 H 
ENDBRANCH    6    7
BRANCH   14   15
ATOM    111  H10 UNL A   1      18.815  48.711  50.480  1.00  0.00    +0.000 H 
ATOM     15  C13 UNL A   1      17.884  49.127  50.326  1.00  0.00    +0.000 C 
BRANCH   15   16
ATOM     16  N3  UNL A   1      17.479  50.097  51.078  1.00  0.00    +0.000 N 
BRANCH   16   17
ATOM     17  O1  UNL A   1      18.207  51.253  50.771  1.00  0.00    +0.000 O 
ATOM    112  H11 UNL A   1      18.175  51.994  51.344  1.00  0.00    +0.000 H 
ENDBRANCH   16   17
ENDBRANCH   15   16
ENDBRANCH   14   15
ENDBRANCH    3    4
ENDBRANCH   21   20
ENDBRANCH   25   24
ENDBRANCH   27   25
ENDBRANCH   28   27
ENDBRANCH   29   28
ENDBRANCH   30   29
ENDBRANCH   31   30
ENDBRANCH   32   31
ENDBRANCH   33   32
ENDBRANCH   34   33
ENDBRANCH   35   34
ENDBRANCH   37   35
ENDBRANCH   41   40
BRANCH   45   46
ATOM     46  C34 UNL A   1      21.064  33.817  44.927  1.00  0.00    +0.000 C 
ATOM     47  C35 UNL A   1      20.123  33.256  44.035  1.00  0.00    +0.000 C 
ATOM     48  F1  UNL A   1      19.447  34.034  43.176  1.00  0.00    +0.000 F 
ATOM     49  C36 UNL A   1      19.777  31.902  44.075  1.00  0.00    +0.000 C 
ATOM     50  F2  UNL A   1      18.779  31.445  43.306  1.00  0.00    +0.000 F 
ATOM     51  C37 UNL A   1      20.404  31.045  44.959  1.00  0.00    +0.000 C 
ATOM     52  F3  UNL A   1      20.027  29.762  45.050  1.00  0.00    +0.000 F 
ATOM     53  C38 UNL A   1      21.391  31.536  45.787  1.00  0.00    +0.000 C 
ATOM     54  F4  UNL A   1      22.000  30.722  46.661  1.00  0.00    +0.000 F 
ATOM     55  C39 UNL A   1      21.701  32.896  45.787  1.00  0.00    +0.000 C 
ATOM     56  F5  UNL A   1      22.563  33.282  46.734  1.00  0.00    +0.000 F 
ENDBRANCH   45   46
BRANCH   62   63
ATOM     65  F6  UNL A   1      20.571  39.338  48.992  1.00  0.00    +0.000 F 
ATOM     66  C47 UNL A   1      18.827  40.515  50.022  1.00  0.00    +0.000 C 
ATOM     67  F7  UNL A   1      19.598  41.612  50.063  1.00  0.00    +0.000 F 
ATOM     68  C48 UNL A   1      17.515  40.578  50.465  1.00  0.00    +0.000 C 
ATOM     69  F8  UNL A   1      17.014  41.732  50.925  1.00  0.00    +0.000 F 
ATOM     70  C49 UNL A   1      16.715  39.448  50.406  1.00  0.00    +0.000 C 
ATOM     71  F9  UNL A   1      15.431  39.516  50.784  1.00  0.00    +0.000 F 
ATOM     72  C50 UNL A   1      17.233  38.247  49.930  1.00  0.00    +0.000 C 
ATOM     73  F10 UNL A   1      16.425  37.176  49.868  1.00  0.00    +0.000 F 
ATOM     63  C45 UNL A   1      18.556  38.156  49.477  1.00  0.00    +0.000 C 
ATOM     64  C46 UNL A   1      19.334  39.324  49.506  1.00  0.00    +0.000 C 
ENDBRANCH   62   63
BRANCH   77   78
ATOM     78  C54 UNL A   1      23.126  35.499  52.891  1.00  0.00    +0.000 C 
ATOM     79  C55 UNL A   1      22.414  35.407  54.096  1.00  0.00    +0.000 C 
ATOM     80  F11 UNL A   1      21.260  36.072  54.249  1.00  0.00    +0.000 F 
ATOM     81  C56 UNL A   1      22.845  34.581  55.138  1.00  0.00    +0.000 C 
ATOM     82  F12 UNL A   1      22.109  34.472  56.253  1.00  0.00    +0.000 F 
ATOM     83  C57 UNL A   1      24.003  33.830  55.005  1.00  0.00    +0.000 C 
ATOM     84  F13 UNL A   1      24.386  32.997  55.983  1.00  0.00    +0.000 F 
ATOM     85  C58 UNL A   1      24.740  33.918  53.839  1.00  0.00    +0.000 C 
ATOM     86  F14 UNL A   1      25.843  33.172  53.685  1.00  0.00    +0.000 F 
ATOM     87  C59 UNL A   1      24.304  34.734  52.796  1.00  0.00    +0.000 C 
ATOM     88  F15 UNL A   1      25.009  34.696  51.655  1.00  0.00    +0.000 F 
ENDBRANCH   77   78
TORSDOF 22
ENDMDL
