MODEL 1
REMARK VINA RESULT:     -11.2      0.000      0.000
ROOT
ATOM     19  C15 UNL A   1      25.902  36.191  45.428  1.00  0.00    +0.000 C 
ATOM     20  C16 UNL A   1      25.808  37.345  46.388  1.00  0.00    +0.000 C 
ATOM     21  N3  UNL A   1      26.720  38.224  46.720  1.00  0.00    +0.000 N 
ATOM     22  C17 UNL A   1      26.099  39.097  47.602  1.00  0.00    +0.000 C 
ATOM     23  C18 UNL A   1      26.636  40.143  48.275  1.00  0.00    +0.000 C 
ATOM     35  C25 UNL A   1      28.017  40.540  48.186  1.00  0.00    +0.000 C 
ATOM     36  C26 UNL A   1      28.676  41.541  48.877  1.00  0.00    +0.000 C 
ATOM     37  C27 UNL A   1      30.000  41.585  48.429  1.00  0.00    +0.000 C 
ATOM     38  C28 UNL A   1      30.179  40.582  47.491  1.00  0.00    +0.000 C 
ATOM     39  N4  UNL A   1      28.953  39.951  47.348  1.00  0.00    +0.000 N 
ATOM     40  C29 UNL A   1      31.378  40.224  46.776  1.00  0.00    +0.000 C 
ATOM     52  C36 UNL A   1      31.473  39.219  45.871  1.00  0.00    +0.000 C 
ATOM     53  N5  UNL A   1      30.494  38.333  45.445  1.00  0.00    +0.000 N 
ATOM     54  C37 UNL A   1      31.070  37.558  44.558  1.00  0.00    +0.000 C 
ATOM     55  C38 UNL A   1      30.496  36.396  43.793  1.00  0.00    +0.000 C 
ATOM     67  C45 UNL A   1      29.213  36.045  43.997  1.00  0.00    +0.000 C 
ATOM     68  C46 UNL A   1      28.523  34.936  43.343  1.00  0.00    +0.000 C 
ATOM     69  C47 UNL A   1      27.252  34.894  43.779  1.00  0.00    +0.000 C 
ATOM     70  C48 UNL A   1      27.050  35.955  44.767  1.00  0.00    +0.000 C 
ATOM     71  N6  UNL A   1      28.262  36.594  44.822  1.00  0.00    +0.000 N 
ATOM     72  C49 UNL A   1      32.478  37.890  44.297  1.00  0.00    +0.000 C 
ATOM     73  C50 UNL A   1      32.684  38.880  45.153  1.00  0.00    +0.000 C 
ATOM     74  C51 UNL A   1      24.720  38.674  47.717  1.00  0.00    +0.000 C 
ATOM     75  C52 UNL A   1      24.507  37.555  47.042  1.00  0.00    +0.000 C 
ATOM    112  H21 UNL A   1      28.261  42.151  49.600  1.00  0.00    +0.000 H 
ATOM    113  H22 UNL A   1      30.721  42.253  48.744  1.00  0.00    +0.000 H 
ATOM    114  H23 UNL A   1      28.774  39.197  46.742  1.00  0.00    +0.000 H 
ATOM    115  H24 UNL A   1      28.943  34.290  42.658  1.00  0.00    +0.000 H 
ATOM    116  H25 UNL A   1      26.535  34.221  43.466  1.00  0.00    +0.000 H 
ATOM    117  H26 UNL A   1      28.435  37.374  45.399  1.00  0.00    +0.000 H 
ATOM    118  H27 UNL A   1      33.133  37.463  43.624  1.00  0.00    +0.000 H 
ATOM    119  H28 UNL A   1      33.593  39.350  45.290  1.00  0.00    +0.000 H 
ATOM    120  H29 UNL A   1      23.998  39.180  48.253  1.00  0.00    +0.000 H 
ATOM    121  H30 UNL A   1      23.652  36.980  46.990  1.00  0.00    +0.000 H 
ENDROOT
BRANCH   19   18
ATOM     76  C53 UNL A   1      23.732  35.788  44.261  1.00  0.00    +0.000 C 
ATOM     77  C54 UNL A   1      22.588  35.027  44.036  1.00  0.00    +0.000 C 
ATOM    110  H19 UNL A   1      23.314  32.405  46.002  1.00  0.00    +0.000 H 
ATOM     15  C11 UNL A   1      22.459  33.768  44.631  1.00  0.00    +0.000 C 
ATOM     16  C12 UNL A   1      23.424  33.320  45.538  1.00  0.00    +0.000 C 
ATOM     17  C13 UNL A   1      24.538  34.115  45.816  1.00  0.00    +0.000 C 
ATOM    111  H20 UNL A   1      25.237  33.797  46.505  1.00  0.00    +0.000 H 
ATOM     18  C14 UNL A   1      24.712  35.346  45.163  1.00  0.00    +0.000 C 
ATOM    122  H31 UNL A   1      23.860  36.682  43.762  1.00  0.00    +0.000 H 
ATOM    123  H32 UNL A   1      21.835  35.392  43.432  1.00  0.00    +0.000 H 
BRANCH   15   13
ATOM     13  C10 UNL A   1      21.296  32.901  44.344  1.00  0.00    +0.000 C 
ATOM     14  O2  UNL A   1      21.470  31.714  44.085  1.00  0.00    +0.000 O 
BRANCH   13   12
ATOM     12  N2  UNL A   1      20.028  33.425  44.353  1.00  0.00    +0.000 N 
ATOM    109  H18 UNL A   1      19.889  34.183  44.965  1.00  0.00    +0.000 H 
BRANCH   12   11
ATOM     11  C9  UNL A   1      18.863  33.020  43.585  1.00  0.00    +0.000 C 
ATOM    108  H17 UNL A   1      19.200  32.413  42.770  1.00  0.00    +0.000 H 
ATOM    107  H16 UNL A   1      18.358  33.896  43.235  1.00  0.00    +0.000 H 
BRANCH   11   10
ATOM    105  H14 UNL A   1      17.811  32.636  45.384  1.00  0.00    +0.000 H 
ATOM     10  C8  UNL A   1      17.889  32.191  44.415  1.00  0.00    +0.000 C 
ATOM    106  H15 UNL A   1      16.962  32.185  43.880  1.00  0.00    +0.000 H 
BRANCH   10    9
ATOM      9  C7  UNL A   1      18.293  30.726  44.595  1.00  0.00    +0.000 C 
ATOM    103  H12 UNL A   1      19.353  30.654  44.462  1.00  0.00    +0.000 H 
ATOM    104  H13 UNL A   1      17.970  30.444  45.576  1.00  0.00    +0.000 H 
BRANCH    9    8
ATOM    101  H10 UNL A   1      18.394  29.258  43.064  1.00  0.00    +0.000 H 
ATOM    102  H11 UNL A   1      17.047  29.077  44.228  1.00  0.00    +0.000 H 
ATOM      8  C6  UNL A   1      17.625  29.746  43.625  1.00  0.00    +0.000 C 
BRANCH    8    7
ATOM     99  H8  UNL A   1      16.583  31.429  42.841  1.00  0.00    +0.000 H 
ATOM    100  H9  UNL A   1      17.020  30.180  41.650  1.00  0.00    +0.000 H 
ATOM      7  C5  UNL A   1      16.643  30.382  42.631  1.00  0.00    +0.000 C 
BRANCH    7    6
ATOM     97  H6  UNL A   1      14.607  30.444  43.274  1.00  0.00    +0.000 H 
ATOM     98  H7  UNL A   1      14.849  29.712  41.696  1.00  0.00    +0.000 H 
ATOM      6  C4  UNL A   1      15.230  29.796  42.692  1.00  0.00    +0.000 C 
BRANCH    6    5
ATOM      5  N1  UNL A   1      15.247  28.483  43.297  1.00  0.00    +0.000 N 
ATOM     96  H5  UNL A   1      15.414  28.469  44.268  1.00  0.00    +0.000 H 
BRANCH    5    3
ATOM      3  C3  UNL A   1      15.063  27.258  42.723  1.00  0.00    +0.000 C 
ATOM      4  O1  UNL A   1      14.865  27.239  41.507  1.00  0.00    +0.000 O 
BRANCH    3    2
ATOM      2  C2  UNL A   1      15.030  26.003  43.605  1.00  0.00    +0.000 C 
ATOM     95  H4  UNL A   1      14.420  26.249  44.449  1.00  0.00    +0.000 H 
BRANCH    2    1
ATOM      1  C1  UNL A   1      16.402  25.623  44.176  1.00  0.00    +0.000 C 
ATOM     92  H1  UNL A   1      16.860  26.489  44.606  1.00  0.00    +0.000 H 
ATOM     93  H2  UNL A   1      17.023  25.243  43.391  1.00  0.00    +0.000 H 
ATOM     94  H3  UNL A   1      16.280  24.873  44.928  1.00  0.00    +0.000 H 
ENDBRANCH    2    1
BRANCH    2   78
ATOM    137  H46 UNL A   1      11.408  23.619  41.911  1.00  0.00    +0.000 H 
ATOM     78  C55 UNL A   1      14.389  24.832  42.875  1.00  0.00    +0.000 C 
ATOM     79  C56 UNL A   1      15.195  23.818  42.340  1.00  0.00    +0.000 C 
ATOM     80  C57 UNL A   1      14.626  22.770  41.612  1.00  0.00    +0.000 C 
ATOM     81  C58 UNL A   1      13.246  22.726  41.379  1.00  0.00    +0.000 C 
ATOM     89  C65 UNL A   1      12.434  23.682  42.000  1.00  0.00    +0.000 C 
ATOM     90  C66 UNL A   1      13.003  24.715  42.736  1.00  0.00    +0.000 C 
ATOM     91  F16 UNL A   1      12.185  25.628  43.277  1.00  0.00    +0.000 F 
ATOM    124  H33 UNL A   1      16.216  23.844  42.486  1.00  0.00    +0.000 H 
ATOM    125  H34 UNL A   1      15.230  22.020  41.240  1.00  0.00    +0.000 H 
BRANCH   81   82
ATOM     82  C59 UNL A   1      12.636  21.695  40.465  1.00  0.00    +0.000 C 
ATOM    126  H35 UNL A   1      12.956  21.920  39.469  1.00  0.00    +0.000 H 
ATOM    127  H36 UNL A   1      11.583  21.768  40.635  1.00  0.00    +0.000 H 
BRANCH   82   83
ATOM    129  H38 UNL A   1      14.179  18.748  39.712  1.00  0.00    +0.000 H 
ATOM    130  H39 UNL A   1      13.642  20.034  38.687  1.00  0.00    +0.000 H 
ATOM    131  H40 UNL A   1      12.391  17.529  39.024  1.00  0.00    +0.000 H 
ATOM    132  H41 UNL A   1      11.719  18.877  38.178  1.00  0.00    +0.000 H 
ATOM    133  H42 UNL A   1      10.684  17.800  40.519  1.00  0.00    +0.000 H 
ATOM    134  H43 UNL A   1      10.292  19.369  39.947  1.00  0.00    +0.000 H 
ATOM    135  H44 UNL A   1      12.349  18.571  41.995  1.00  0.00    +0.000 H 
ATOM     83  C60 UNL A   1      12.977  20.210  40.735  1.00  0.00    +0.000 C 
ATOM     84  C61 UNL A   1      13.353  19.393  39.492  1.00  0.00    +0.000 C 
ATOM     85  C62 UNL A   1      12.124  18.561  39.115  1.00  0.00    +0.000 C 
ATOM     86  C63 UNL A   1      11.108  18.741  40.239  1.00  0.00    +0.000 C 
ATOM     87  C64 UNL A   1      11.905  19.336  41.395  1.00  0.00    +0.000 C 
ATOM    128  H37 UNL A   1      13.793  20.383  41.405  1.00  0.00    +0.000 H 
BRANCH   87   88
ATOM    136  H45 UNL A   1      10.213  20.144  41.977  1.00  0.00    +0.000 H 
ATOM     88  O3  UNL A   1      11.106  20.022  42.337  1.00  0.00    +0.000 O 
ENDBRANCH   87   88
ENDBRANCH   82   83
ENDBRANCH   81   82
ENDBRANCH    2   78
ENDBRANCH    3    2
ENDBRANCH    5    3
ENDBRANCH    6    5
ENDBRANCH    7    6
ENDBRANCH    8    7
ENDBRANCH    9    8
ENDBRANCH   10    9
ENDBRANCH   11   10
ENDBRANCH   12   11
ENDBRANCH   13   12
ENDBRANCH   15   13
ENDBRANCH   19   18
BRANCH   23   24
ATOM     33  C24 UNL A   1      25.543  40.558  50.510  1.00  0.00    +0.000 C 
ATOM     34  F5  UNL A   1      26.196  39.499  51.011  1.00  0.00    +0.000 F 
ATOM     24  C19 UNL A   1      25.725  40.932  49.170  1.00  0.00    +0.000 C 
ATOM     25  C20 UNL A   1      25.013  42.046  48.697  1.00  0.00    +0.000 C 
ATOM     26  F1  UNL A   1      25.160  42.453  47.428  1.00  0.00    +0.000 F 
ATOM     27  C21 UNL A   1      24.181  42.776  49.543  1.00  0.00    +0.000 C 
ATOM     28  F2  UNL A   1      23.555  43.869  49.083  1.00  0.00    +0.000 F 
ATOM     29  C22 UNL A   1      24.014  42.386  50.862  1.00  0.00    +0.000 C 
ATOM     30  F3  UNL A   1      23.212  43.087  51.675  1.00  0.00    +0.000 F 
ATOM     31  C23 UNL A   1      24.687  41.273  51.344  1.00  0.00    +0.000 C 
ATOM     32  F4  UNL A   1      24.518  40.887  52.616  1.00  0.00    +0.000 F 
ENDBRANCH   23   24
BRANCH   40   41
ATOM     41  C30 UNL A   1      32.627  41.001  47.072  1.00  0.00    +0.000 C 
ATOM     42  C31 UNL A   1      32.882  42.242  46.471  1.00  0.00    +0.000 C 
ATOM     43  F6  UNL A   1      32.022  42.746  45.573  1.00  0.00    +0.000 F 
ATOM     44  C32 UNL A   1      34.044  42.951  46.761  1.00  0.00    +0.000 C 
ATOM     45  F7  UNL A   1      34.291  44.112  46.139  1.00  0.00    +0.000 F 
ATOM     46  C33 UNL A   1      34.955  42.451  47.680  1.00  0.00    +0.000 C 
ATOM     47  F8  UNL A   1      36.070  43.137  47.960  1.00  0.00    +0.000 F 
ATOM     48  C34 UNL A   1      34.713  41.235  48.301  1.00  0.00    +0.000 C 
ATOM     49  F9  UNL A   1      35.585  40.755  49.198  1.00  0.00    +0.000 F 
ATOM     50  C35 UNL A   1      33.566  40.510  47.992  1.00  0.00    +0.000 C 
ATOM     51  F10 UNL A   1      33.366  39.330  48.598  1.00  0.00    +0.000 F 
ENDBRANCH   40   41
BRANCH   55   56
ATOM     65  C44 UNL A   1      32.055  34.483  43.283  1.00  0.00    +0.000 C 
ATOM     66  F15 UNL A   1      31.994  34.094  44.565  1.00  0.00    +0.000 F 
ATOM     56  C39 UNL A   1      31.340  35.611  42.857  1.00  0.00    +0.000 C 
ATOM     57  C40 UNL A   1      31.442  35.979  41.507  1.00  0.00    +0.000 C 
ATOM     58  F11 UNL A   1      30.759  37.038  41.048  1.00  0.00    +0.000 F 
ATOM     59  C41 UNL A   1      32.213  35.237  40.616  1.00  0.00    +0.000 C 
ATOM     60  F12 UNL A   1      32.259  35.584  39.322  1.00  0.00    +0.000 F 
ATOM     61  C42 UNL A   1      32.920  34.129  41.062  1.00  0.00    +0.000 C 
ATOM     62  F13 UNL A   1      33.664  33.417  40.205  1.00  0.00    +0.000 F 
ATOM     63  C43 UNL A   1      32.846  33.757  42.396  1.00  0.00    +0.000 C 
ATOM     64  F14 UNL A   1      33.538  32.696  42.833  1.00  0.00    +0.000 F 
ENDBRANCH   55   56
TORSDOF 20
ENDMDL
MODEL 2
REMARK VINA RESULT:     -11.2     27.810     33.156
ROOT
ATOM     19  C15 UNL A   1      46.529  11.592  47.027  1.00  0.00    +0.000 C 
ATOM     20  C16 UNL A   1      46.739  10.669  48.196  1.00  0.00    +0.000 C 
ATOM     21  N3  UNL A   1      47.517  10.815  49.238  1.00  0.00    +0.000 N 
ATOM     22  C17 UNL A   1      47.295   9.700  50.035  1.00  0.00    +0.000 C 
ATOM     23  C18 UNL A   1      47.905   9.353  51.193  1.00  0.00    +0.000 C 
ATOM     35  C25 UNL A   1      48.946  10.123  51.822  1.00  0.00    +0.000 C 
ATOM     36  C26 UNL A   1      49.676   9.824  52.959  1.00  0.00    +0.000 C 
ATOM     37  C27 UNL A   1      50.549  10.888  53.212  1.00  0.00    +0.000 C 
ATOM     38  C28 UNL A   1      50.395  11.829  52.207  1.00  0.00    +0.000 C 
ATOM     39  N4  UNL A   1      49.406  11.349  51.363  1.00  0.00    +0.000 N 
ATOM     40  C29 UNL A   1      51.097  13.075  52.027  1.00  0.00    +0.000 C 
ATOM     52  C36 UNL A   1      50.891  13.944  51.009  1.00  0.00    +0.000 C 
ATOM     53  N5  UNL A   1      50.008  13.845  49.942  1.00  0.00    +0.000 N 
ATOM     54  C37 UNL A   1      50.173  14.937  49.234  1.00  0.00    +0.000 C 
ATOM     55  C38 UNL A   1      49.506  15.348  47.950  1.00  0.00    +0.000 C 
ATOM     67  C45 UNL A   1      48.597  14.529  47.389  1.00  0.00    +0.000 C 
ATOM     68  C46 UNL A   1      47.880  14.783  46.143  1.00  0.00    +0.000 C 
ATOM     69  C47 UNL A   1      47.046  13.758  45.902  1.00  0.00    +0.000 C 
ATOM     70  C48 UNL A   1      47.194  12.760  46.961  1.00  0.00    +0.000 C 
ATOM     71  N6  UNL A   1      48.126  13.308  47.806  1.00  0.00    +0.000 N 
ATOM     72  C49 UNL A   1      51.162  15.870  49.794  1.00  0.00    +0.000 C 
ATOM     73  C50 UNL A   1      51.597  15.198  50.850  1.00  0.00    +0.000 C 
ATOM     74  C51 UNL A   1      46.272   8.911  49.382  1.00  0.00    +0.000 C 
ATOM     75  C52 UNL A   1      45.946   9.430  48.208  1.00  0.00    +0.000 C 
ATOM    112  H21 UNL A   1      49.591   8.964  53.524  1.00  0.00    +0.000 H 
ATOM    113  H22 UNL A   1      51.196  10.960  54.012  1.00  0.00    +0.000 H 
ATOM    114  H23 UNL A   1      49.078  11.810  50.558  1.00  0.00    +0.000 H 
ATOM    115  H24 UNL A   1      47.995  15.616  45.545  1.00  0.00    +0.000 H 
ATOM    116  H25 UNL A   1      46.403  13.687  45.097  1.00  0.00    +0.000 H 
ATOM    117  H26 UNL A   1      48.428  12.868  48.634  1.00  0.00    +0.000 H 
ATOM    118  H27 UNL A   1      51.441  16.803  49.454  1.00  0.00    +0.000 H 
ATOM    119  H28 UNL A   1      52.346  15.527  51.479  1.00  0.00    +0.000 H 
ATOM    120  H29 UNL A   1      45.852   8.057  49.781  1.00  0.00    +0.000 H 
ATOM    121  H30 UNL A   1      45.305   9.060  47.490  1.00  0.00    +0.000 H 
ENDROOT
BRANCH   19   18
ATOM     76  C53 UNL A   1      44.197  11.593  46.139  1.00  0.00    +0.000 C 
ATOM     77  C54 UNL A   1      43.253  11.234  45.179  1.00  0.00    +0.000 C 
ATOM    110  H19 UNL A   1      45.303   9.768  42.961  1.00  0.00    +0.000 H 
ATOM     15  C11 UNL A   1      43.665  10.614  43.994  1.00  0.00    +0.000 C 
ATOM     16  C12 UNL A   1      45.005  10.253  43.821  1.00  0.00    +0.000 C 
ATOM     17  C13 UNL A   1      45.938  10.553  44.815  1.00  0.00    +0.000 C 
ATOM    111  H20 UNL A   1      46.922  10.264  44.700  1.00  0.00    +0.000 H 
ATOM     18  C14 UNL A   1      45.545  11.245  45.973  1.00  0.00    +0.000 C 
ATOM    122  H31 UNL A   1      43.901  12.118  46.976  1.00  0.00    +0.000 H 
ATOM    123  H32 UNL A   1      42.253  11.423  45.341  1.00  0.00    +0.000 H 
BRANCH   15   13
ATOM     13  C10 UNL A   1      42.699  10.298  42.920  1.00  0.00    +0.000 C 
ATOM     14  O2  UNL A   1      42.773   9.224  42.330  1.00  0.00    +0.000 O 
BRANCH   13   12
ATOM     12  N2  UNL A   1      41.732  11.208  42.575  1.00  0.00    +0.000 N 
ATOM    109  H18 UNL A   1      40.847  11.059  42.980  1.00  0.00    +0.000 H 
BRANCH   12   11
ATOM     11  C9  UNL A   1      41.829  12.360  41.695  1.00  0.00    +0.000 C 
ATOM    108  H17 UNL A   1      41.134  12.222  40.893  1.00  0.00    +0.000 H 
ATOM    107  H16 UNL A   1      42.832  12.434  41.331  1.00  0.00    +0.000 H 
BRANCH   11   10
ATOM    105  H14 UNL A   1      40.470  13.571  42.781  1.00  0.00    +0.000 H 
ATOM     10  C8  UNL A   1      41.469  13.659  42.408  1.00  0.00    +0.000 C 
ATOM    106  H15 UNL A   1      42.195  13.792  43.182  1.00  0.00    +0.000 H 
BRANCH   10    9
ATOM      9  C7  UNL A   1      41.540  14.909  41.528  1.00  0.00    +0.000 C 
ATOM    103  H12 UNL A   1      40.548  15.144  41.203  1.00  0.00    +0.000 H 
ATOM    104  H13 UNL A   1      41.980  15.676  42.132  1.00  0.00    +0.000 H 
BRANCH    9    8
ATOM    101  H10 UNL A   1      43.252  14.141  40.536  1.00  0.00    +0.000 H 
ATOM    102  H11 UNL A   1      41.804  14.385  39.513  1.00  0.00    +0.000 H 
ATOM      8  C6  UNL A   1      42.429  14.778  40.287  1.00  0.00    +0.000 C 
BRANCH    8    7
ATOM     99  H8  UNL A   1      42.598  16.264  38.771  1.00  0.00    +0.000 H 
ATOM    100  H9  UNL A   1      42.712  16.864  40.443  1.00  0.00    +0.000 H 
ATOM      7  C5  UNL A   1      42.996  16.100  39.750  1.00  0.00    +0.000 C 
BRANCH    7    6
ATOM     97  H6  UNL A   1      44.923  15.289  40.189  1.00  0.00    +0.000 H 
ATOM     98  H7  UNL A   1      44.809  16.086  38.629  1.00  0.00    +0.000 H 
ATOM      6  C4  UNL A   1      44.524  16.129  39.660  1.00  0.00    +0.000 C 
BRANCH    6    5
ATOM      5  N1  UNL A   1      45.047  17.347  40.237  1.00  0.00    +0.000 N 
ATOM     96  H5  UNL A   1      45.513  17.945  39.608  1.00  0.00    +0.000 H 
BRANCH    5    3
ATOM      3  C3  UNL A   1      44.990  17.794  41.527  1.00  0.00    +0.000 C 
ATOM      4  O1  UNL A   1      44.152  18.661  41.777  1.00  0.00    +0.000 O 
BRANCH    3    2
ATOM      2  C2  UNL A   1      45.998  17.269  42.557  1.00  0.00    +0.000 C 
ATOM     95  H4  UNL A   1      46.511  18.128  42.935  1.00  0.00    +0.000 H 
BRANCH    2    1
ATOM      1  C1  UNL A   1      47.081  16.369  41.948  1.00  0.00    +0.000 C 
ATOM     92  H1  UNL A   1      46.643  15.743  41.199  1.00  0.00    +0.000 H 
ATOM     93  H2  UNL A   1      47.511  15.759  42.716  1.00  0.00    +0.000 H 
ATOM     94  H3  UNL A   1      47.842  16.976  41.507  1.00  0.00    +0.000 H 
ENDBRANCH    2    1
BRANCH    2   78
ATOM    137  H46 UNL A   1      44.679  16.893  47.006  1.00  0.00    +0.000 H 
ATOM     78  C55 UNL A   1      45.293  16.582  43.717  1.00  0.00    +0.000 C 
ATOM     79  C56 UNL A   1      44.591  15.389  43.500  1.00  0.00    +0.000 C 
ATOM     80  C57 UNL A   1      43.885  14.781  44.542  1.00  0.00    +0.000 C 
ATOM     81  C58 UNL A   1      43.844  15.364  45.814  1.00  0.00    +0.000 C 
ATOM     89  C65 UNL A   1      44.628  16.497  46.055  1.00  0.00    +0.000 C 
ATOM     90  C66 UNL A   1      45.341  17.091  45.019  1.00  0.00    +0.000 C 
ATOM     91  F16 UNL A   1      46.045  18.198  45.292  1.00  0.00    +0.000 F 
ATOM    124  H33 UNL A   1      44.596  14.955  42.564  1.00  0.00    +0.000 H 
ATOM    125  H34 UNL A   1      43.388  13.894  44.371  1.00  0.00    +0.000 H 
BRANCH   81   82
ATOM     82  C59 UNL A   1      42.961  14.810  46.903  1.00  0.00    +0.000 C 
ATOM    126  H35 UNL A   1      42.881  13.755  46.745  1.00  0.00    +0.000 H 
ATOM    127  H36 UNL A   1      42.046  15.356  46.817  1.00  0.00    +0.000 H 
BRANCH   82   83
ATOM    129  H38 UNL A   1      45.164  14.467  49.483  1.00  0.00    +0.000 H 
ATOM    130  H39 UNL A   1      44.885  13.468  48.099  1.00  0.00    +0.000 H 
ATOM    131  H40 UNL A   1      44.063  12.931  50.743  1.00  0.00    +0.000 H 
ATOM    132  H41 UNL A   1      43.577  12.040  49.344  1.00  0.00    +0.000 H 
ATOM    133  H42 UNL A   1      41.872  13.553  50.930  1.00  0.00    +0.000 H 
ATOM    134  H43 UNL A   1      41.485  13.055  49.335  1.00  0.00    +0.000 H 
ATOM    135  H44 UNL A   1      42.616  15.686  50.264  1.00  0.00    +0.000 H 
ATOM     83  C60 UNL A   1      43.413  15.027  48.367  1.00  0.00    +0.000 C 
ATOM     84  C61 UNL A   1      44.405  13.985  48.901  1.00  0.00    +0.000 C 
ATOM     85  C62 UNL A   1      43.607  13.016  49.779  1.00  0.00    +0.000 C 
ATOM     86  C63 UNL A   1      42.203  13.598  49.914  1.00  0.00    +0.000 C 
ATOM     87  C64 UNL A   1      42.333  15.046  49.455  1.00  0.00    +0.000 C 
ATOM    128  H37 UNL A   1      43.835  16.000  48.231  1.00  0.00    +0.000 H 
BRANCH   87   88
ATOM    136  H45 UNL A   1      40.501  15.662  49.793  1.00  0.00    +0.000 H 
ATOM     88  O3  UNL A   1      41.111  15.619  49.040  1.00  0.00    +0.000 O 
ENDBRANCH   87   88
ENDBRANCH   82   83
ENDBRANCH   81   82
ENDBRANCH    2   78
ENDBRANCH    3    2
ENDBRANCH    5    3
ENDBRANCH    6    5
ENDBRANCH    7    6
ENDBRANCH    8    7
ENDBRANCH    9    8
ENDBRANCH   10    9
ENDBRANCH   11   10
ENDBRANCH   12   11
ENDBRANCH   13   12
ENDBRANCH   15   13
ENDBRANCH   19   18
BRANCH   23   24
ATOM     33  C24 UNL A   1      48.128   6.875  51.604  1.00  0.00    +0.000 C 
ATOM     34  F5  UNL A   1      49.184   6.847  50.778  1.00  0.00    +0.000 F 
ATOM     24  C19 UNL A   1      47.459   8.082  51.856  1.00  0.00    +0.000 C 
ATOM     25  C20 UNL A   1      46.357   8.052  52.726  1.00  0.00    +0.000 C 
ATOM     26  F1  UNL A   1      45.690   9.180  53.010  1.00  0.00    +0.000 F 
ATOM     27  C21 UNL A   1      45.964   6.867  53.343  1.00  0.00    +0.000 C 
ATOM     28  F2  UNL A   1      44.943   6.874  54.212  1.00  0.00    +0.000 F 
ATOM     29  C22 UNL A   1      46.638   5.686  53.076  1.00  0.00    +0.000 C 
ATOM     30  F3  UNL A   1      46.257   4.546  53.669  1.00  0.00    +0.000 F 
ATOM     31  C23 UNL A   1      47.714   5.687  52.201  1.00  0.00    +0.000 C 
ATOM     32  F4  UNL A   1      48.358   4.543  51.932  1.00  0.00    +0.000 F 
ENDBRANCH   23   24
BRANCH   40   41
ATOM     41  C30 UNL A   1      52.158  13.429  53.027  1.00  0.00    +0.000 C 
ATOM     42  C31 UNL A   1      51.861  14.153  54.191  1.00  0.00    +0.000 C 
ATOM     43  F6  UNL A   1      50.612  14.587  54.415  1.00  0.00    +0.000 F 
ATOM     44  C32 UNL A   1      52.858  14.469  55.110  1.00  0.00    +0.000 C 
ATOM     45  F7  UNL A   1      52.561  15.204  56.191  1.00  0.00    +0.000 F 
ATOM     46  C33 UNL A   1      54.161  14.040  54.900  1.00  0.00    +0.000 C 
ATOM     47  F8  UNL A   1      55.117  14.342  55.788  1.00  0.00    +0.000 F 
ATOM     48  C34 UNL A   1      54.472  13.305  53.766  1.00  0.00    +0.000 C 
ATOM     49  F9  UNL A   1      55.727  12.879  53.568  1.00  0.00    +0.000 F 
ATOM     50  C35 UNL A   1      53.484  13.013  52.831  1.00  0.00    +0.000 C 
ATOM     51  F10 UNL A   1      53.818  12.313  51.737  1.00  0.00    +0.000 F 
ENDBRANCH   40   41
BRANCH   55   56
ATOM     65  C44 UNL A   1      50.965  16.699  46.402  1.00  0.00    +0.000 C 
ATOM     66  F15 UNL A   1      51.713  15.613  46.162  1.00  0.00    +0.000 F 
ATOM     56  C39 UNL A   1      49.872  16.620  47.277  1.00  0.00    +0.000 C 
ATOM     57  C40 UNL A   1      49.125  17.786  47.498  1.00  0.00    +0.000 C 
ATOM     58  F11 UNL A   1      48.058  17.755  48.310  1.00  0.00    +0.000 F 
ATOM     59  C41 UNL A   1      49.447  18.979  46.854  1.00  0.00    +0.000 C 
ATOM     60  F12 UNL A   1      48.691  20.068  47.049  1.00  0.00    +0.000 F 
ATOM     61  C42 UNL A   1      50.538  19.036  46.000  1.00  0.00    +0.000 C 
ATOM     62  F13 UNL A   1      50.850  20.184  45.383  1.00  0.00    +0.000 F 
ATOM     63  C43 UNL A   1      51.301  17.899  45.780  1.00  0.00    +0.000 C 
ATOM     64  F14 UNL A   1      52.364  17.953  44.965  1.00  0.00    +0.000 F 
ENDBRANCH   55   56
TORSDOF 20
ENDMDL
MODEL 3
REMARK VINA RESULT:     -11.2     45.594     50.746
ROOT
ATOM     19  C15 UNL A   1      29.109 -14.277  31.144  1.00  0.00    +0.000 C 
ATOM     20  C16 UNL A   1      28.830 -14.360  32.619  1.00  0.00    +0.000 C 
ATOM     21  N3  UNL A   1      27.815 -13.889  33.299  1.00  0.00    +0.000 N 
ATOM     22  C17 UNL A   1      28.024 -14.285  34.613  1.00  0.00    +0.000 C 
ATOM     23  C18 UNL A   1      27.287 -13.994  35.712  1.00  0.00    +0.000 C 
ATOM     35  C25 UNL A   1      26.102 -13.177  35.699  1.00  0.00    +0.000 C 
ATOM     36  C26 UNL A   1      25.322 -12.766  36.765  1.00  0.00    +0.000 C 
ATOM     37  C27 UNL A   1      24.251 -12.020  36.263  1.00  0.00    +0.000 C 
ATOM     38  C28 UNL A   1      24.387 -11.927  34.888  1.00  0.00    +0.000 C 
ATOM     39  N4  UNL A   1      25.525 -12.645  34.554  1.00  0.00    +0.000 N 
ATOM     40  C29 UNL A   1      23.544 -11.235  33.946  1.00  0.00    +0.000 C 
ATOM     52  C36 UNL A   1      23.750 -11.188  32.607  1.00  0.00    +0.000 C 
ATOM     53  N5  UNL A   1      24.774 -11.754  31.860  1.00  0.00    +0.000 N 
ATOM     54  C37 UNL A   1      24.528 -11.436  30.612  1.00  0.00    +0.000 C 
ATOM     55  C38 UNL A   1      25.326 -11.750  29.376  1.00  0.00    +0.000 C 
ATOM     67  C45 UNL A   1      26.466 -12.456  29.491  1.00  0.00    +0.000 C 
ATOM     68  C46 UNL A   1      27.350 -12.825  28.389  1.00  0.00    +0.000 C 
ATOM     69  C47 UNL A   1      28.380 -13.538  28.875  1.00  0.00    +0.000 C 
ATOM     70  C48 UNL A   1      28.243 -13.649  30.328  1.00  0.00    +0.000 C 
ATOM     71  N6  UNL A   1      27.072 -12.989  30.602  1.00  0.00    +0.000 N 
ATOM     72  C49 UNL A   1      23.297 -10.656  30.423  1.00  0.00    +0.000 C 
ATOM     73  C50 UNL A   1      22.885 -10.497  31.672  1.00  0.00    +0.000 C 
ATOM     74  C51 UNL A   1      29.235 -15.077  34.629  1.00  0.00    +0.000 C 
ATOM     75  C52 UNL A   1      29.809 -15.095  33.436  1.00  0.00    +0.000 C 
ATOM    112  H21 UNL A   1      25.501 -12.975  37.760  1.00  0.00    +0.000 H 
ATOM    113  H22 UNL A   1      23.487 -11.610  36.823  1.00  0.00    +0.000 H 
ATOM    114  H23 UNL A   1      25.872 -12.760  33.641  1.00  0.00    +0.000 H 
ATOM    115  H24 UNL A   1      27.208 -12.578  27.398  1.00  0.00    +0.000 H 
ATOM    116  H25 UNL A   1      29.145 -13.943  28.313  1.00  0.00    +0.000 H 
ATOM    117  H26 UNL A   1      26.701 -12.905  31.511  1.00  0.00    +0.000 H 
ATOM    118  H27 UNL A   1      22.866 -10.321  29.547  1.00  0.00    +0.000 H 
ATOM    119  H28 UNL A   1      22.053  -9.950  31.945  1.00  0.00    +0.000 H 
ATOM    120  H29 UNL A   1      29.601 -15.566  35.461  1.00  0.00    +0.000 H 
ATOM    121  H30 UNL A   1      30.709 -15.513  33.153  1.00  0.00    +0.000 H 
ENDROOT
BRANCH   19   18
ATOM     76  C53 UNL A   1      30.201 -16.224  30.027  1.00  0.00    +0.000 C 
ATOM     77  C54 UNL A   1      31.328 -16.875  29.531  1.00  0.00    +0.000 C 
ATOM    110  H19 UNL A   1      33.592 -14.447  30.032  1.00  0.00    +0.000 H 
ATOM     15  C11 UNL A   1      32.556 -16.206  29.485  1.00  0.00    +0.000 C 
ATOM     16  C12 UNL A   1      32.679 -14.928  30.037  1.00  0.00    +0.000 C 
ATOM     17  C13 UNL A   1      31.563 -14.303  30.596  1.00  0.00    +0.000 C 
ATOM    111  H20 UNL A   1      31.659 -13.371  31.028  1.00  0.00    +0.000 H 
ATOM     18  C14 UNL A   1      30.310 -14.938  30.576  1.00  0.00    +0.000 C 
ATOM    122  H31 UNL A   1      29.281 -16.690  29.990  1.00  0.00    +0.000 H 
ATOM    123  H32 UNL A   1      31.258 -17.849  29.199  1.00  0.00    +0.000 H 
BRANCH   15   13
ATOM     13  C10 UNL A   1      33.750 -16.840  28.886  1.00  0.00    +0.000 C 
ATOM     14  O2  UNL A   1      34.380 -17.677  29.525  1.00  0.00    +0.000 O 
BRANCH   13   12
ATOM     12  N2  UNL A   1      34.160 -16.484  27.626  1.00  0.00    +0.000 N 
ATOM    109  H18 UNL A   1      35.107 -16.661  27.424  1.00  0.00    +0.000 H 
BRANCH   12   11
ATOM     11  C9  UNL A   1      33.394 -15.882  26.548  1.00  0.00    +0.000 C 
ATOM    108  H17 UNL A   1      32.355 -15.975  26.791  1.00  0.00    +0.000 H 
ATOM    107  H16 UNL A   1      33.626 -16.389  25.635  1.00  0.00    +0.000 H 
BRANCH   11   10
ATOM    105  H14 UNL A   1      32.983 -13.840  26.937  1.00  0.00    +0.000 H 
ATOM     10  C8  UNL A   1      33.705 -14.399  26.380  1.00  0.00    +0.000 C 
ATOM    106  H15 UNL A   1      34.706 -14.258  26.730  1.00  0.00    +0.000 H 
BRANCH   10    9
ATOM      9  C7  UNL A   1      33.678 -13.904  24.932  1.00  0.00    +0.000 C 
ATOM    103  H12 UNL A   1      33.552 -14.752  24.292  1.00  0.00    +0.000 H 
ATOM    104  H13 UNL A   1      32.871 -13.204  24.870  1.00  0.00    +0.000 H 
BRANCH    9    8
ATOM    101  H10 UNL A   1      35.555 -13.835  23.943  1.00  0.00    +0.000 H 
ATOM    102  H11 UNL A   1      34.593 -12.327  23.892  1.00  0.00    +0.000 H 
ATOM      8  C6  UNL A   1      34.934 -13.150  24.482  1.00  0.00    +0.000 C 
BRANCH    8    7
ATOM     99  H8  UNL A   1      35.436 -12.962  26.544  1.00  0.00    +0.000 H 
ATOM    100  H9  UNL A   1      36.794 -12.775  25.408  1.00  0.00    +0.000 H 
ATOM      7  C5  UNL A   1      35.771 -12.543  25.618  1.00  0.00    +0.000 C 
BRANCH    7    6
ATOM     97  H6  UNL A   1      36.656 -10.609  25.817  1.00  0.00    +0.000 H 
ATOM     98  H7  UNL A   1      35.206 -10.647  24.827  1.00  0.00    +0.000 H 
ATOM      6  C4  UNL A   1      35.672 -11.019  25.715  1.00  0.00    +0.000 C 
BRANCH    6    5
ATOM      5  N1  UNL A   1      34.874 -10.630  26.857  1.00  0.00    +0.000 N 
ATOM     96  H5  UNL A   1      35.128 -11.051  27.710  1.00  0.00    +0.000 H 
BRANCH    5    3
ATOM      3  C3  UNL A   1      33.822  -9.762  26.929  1.00  0.00    +0.000 C 
ATOM      4  O1  UNL A   1      34.070  -8.619  27.314  1.00  0.00    +0.000 O 
BRANCH    3    2
ATOM      2  C2  UNL A   1      32.405 -10.260  26.613  1.00  0.00    +0.000 C 
ATOM     95  H4  UNL A   1      32.482 -11.321  26.499  1.00  0.00    +0.000 H 
BRANCH    2    1
ATOM      1  C1  UNL A   1      31.857  -9.735  25.280  1.00  0.00    +0.000 C 
ATOM     92  H1  UNL A   1      32.051 -10.452  24.509  1.00  0.00    +0.000 H 
ATOM     93  H2  UNL A   1      32.338  -8.811  25.036  1.00  0.00    +0.000 H 
ATOM     94  H3  UNL A   1      30.803  -9.578  25.365  1.00  0.00    +0.000 H 
ENDBRANCH    2    1
BRANCH    2   78
ATOM    137  H46 UNL A   1      30.733 -10.880  30.913  1.00  0.00    +0.000 H 
ATOM     78  C55 UNL A   1      31.450  -9.968  27.760  1.00  0.00    +0.000 C 
ATOM     79  C56 UNL A   1      30.465  -8.982  27.613  1.00  0.00    +0.000 C 
ATOM     80  C57 UNL A   1      29.622  -8.657  28.680  1.00  0.00    +0.000 C 
ATOM     81  C58 UNL A   1      29.760  -9.291  29.920  1.00  0.00    +0.000 C 
ATOM     89  C65 UNL A   1      30.673 -10.345  30.033  1.00  0.00    +0.000 C 
ATOM     90  C66 UNL A   1      31.501 -10.674  28.965  1.00  0.00    +0.000 C 
ATOM     91  F16 UNL A   1      32.387 -11.665  29.137  1.00  0.00    +0.000 F 
ATOM    124  H33 UNL A   1      30.360  -8.492  26.712  1.00  0.00    +0.000 H 
ATOM    125  H34 UNL A   1      28.889  -7.942  28.551  1.00  0.00    +0.000 H 
BRANCH   81   82
ATOM     82  C59 UNL A   1      28.970  -8.844  31.123  1.00  0.00    +0.000 C 
ATOM    126  H35 UNL A   1      28.804  -7.791  31.025  1.00  0.00    +0.000 H 
ATOM    127  H36 UNL A   1      29.562  -9.137  31.964  1.00  0.00    +0.000 H 
BRANCH   82   83
ATOM    129  H38 UNL A   1      25.597  -9.080  30.683  1.00  0.00    +0.000 H 
ATOM    130  H39 UNL A   1      26.646  -7.705  30.638  1.00  0.00    +0.000 H 
ATOM    131  H40 UNL A   1      24.881  -8.396  32.727  1.00  0.00    +0.000 H 
ATOM    132  H41 UNL A   1      26.081  -7.155  32.800  1.00  0.00    +0.000 H 
ATOM    133  H42 UNL A   1      26.096  -9.467  34.338  1.00  0.00    +0.000 H 
ATOM    134  H43 UNL A   1      27.482  -8.485  34.095  1.00  0.00    +0.000 H 
ATOM    135  H44 UNL A   1      26.667 -10.988  32.633  1.00  0.00    +0.000 H 
ATOM     83  C60 UNL A   1      27.592  -9.509  31.360  1.00  0.00    +0.000 C 
ATOM     84  C61 UNL A   1      26.385  -8.575  31.202  1.00  0.00    +0.000 C 
ATOM     85  C62 UNL A   1      25.926  -8.196  32.613  1.00  0.00    +0.000 C 
ATOM     86  C63 UNL A   1      26.732  -9.053  33.584  1.00  0.00    +0.000 C 
ATOM     87  C64 UNL A   1      27.334 -10.158  32.724  1.00  0.00    +0.000 C 
ATOM    128  H37 UNL A   1      27.672 -10.250  30.593  1.00  0.00    +0.000 H 
BRANCH   87   88
ATOM    136  H45 UNL A   1      28.489 -11.705  33.075  1.00  0.00    +0.000 H 
ATOM     88  O3  UNL A   1      28.476 -10.760  33.297  1.00  0.00    +0.000 O 
ENDBRANCH   87   88
ENDBRANCH   82   83
ENDBRANCH   81   82
ENDBRANCH    2   78
ENDBRANCH    3    2
ENDBRANCH    5    3
ENDBRANCH    6    5
ENDBRANCH    7    6
ENDBRANCH    8    7
ENDBRANCH    9    8
ENDBRANCH   10    9
ENDBRANCH   11   10
ENDBRANCH   12   11
ENDBRANCH   13   12
ENDBRANCH   15   13
ENDBRANCH   19   18
BRANCH   23   24
ATOM     33  C24 UNL A   1      28.666 -13.872  37.819  1.00  0.00    +0.000 C 
ATOM     34  F5  UNL A   1      29.140 -12.681  37.424  1.00  0.00    +0.000 F 
ATOM     24  C19 UNL A   1      27.743 -14.566  37.023  1.00  0.00    +0.000 C 
ATOM     25  C20 UNL A   1      27.284 -15.810  37.483  1.00  0.00    +0.000 C 
ATOM     26  F1  UNL A   1      26.393 -16.509  36.765  1.00  0.00    +0.000 F 
ATOM     27  C21 UNL A   1      27.707 -16.321  38.708  1.00  0.00    +0.000 C 
ATOM     28  F2  UNL A   1      27.213 -17.486  39.152  1.00  0.00    +0.000 F 
ATOM     29  C22 UNL A   1      28.622 -15.620  39.476  1.00  0.00    +0.000 C 
ATOM     30  F3  UNL A   1      29.030 -16.113  40.654  1.00  0.00    +0.000 F 
ATOM     31  C23 UNL A   1      29.109 -14.400  39.030  1.00  0.00    +0.000 C 
ATOM     32  F4  UNL A   1      30.003 -13.726  39.766  1.00  0.00    +0.000 F 
ENDBRANCH   23   24
BRANCH   40   41
ATOM     41  C30 UNL A   1      22.362 -10.486  34.485  1.00  0.00    +0.000 C 
ATOM     42  C31 UNL A   1      21.069 -11.027  34.451  1.00  0.00    +0.000 C 
ATOM     43  F6  UNL A   1      20.854 -12.225  33.886  1.00  0.00    +0.000 F 
ATOM     44  C32 UNL A   1      19.983 -10.320  34.960  1.00  0.00    +0.000 C 
ATOM     45  F7  UNL A   1      18.749 -10.835  34.872  1.00  0.00    +0.000 F 
ATOM     46  C33 UNL A   1      20.174  -9.075  35.543  1.00  0.00    +0.000 C 
ATOM     47  F8  UNL A   1      19.129  -8.398  36.036  1.00  0.00    +0.000 F 
ATOM     48  C34 UNL A   1      21.448  -8.530  35.606  1.00  0.00    +0.000 C 
ATOM     49  F9  UNL A   1      21.637  -7.334  36.179  1.00  0.00    +0.000 F 
ATOM     50  C35 UNL A   1      22.531  -9.222  35.071  1.00  0.00    +0.000 C 
ATOM     51  F10 UNL A   1      23.748  -8.664  35.135  1.00  0.00    +0.000 F 
ENDBRANCH   40   41
BRANCH   55   56
ATOM     65  C44 UNL A   1      23.907 -11.914  27.300  1.00  0.00    +0.000 C 
ATOM     66  F15 UNL A   1      23.337 -13.029  27.780  1.00  0.00    +0.000 F 
ATOM     56  C39 UNL A   1      24.893 -11.252  28.045  1.00  0.00    +0.000 C 
ATOM     57  C40 UNL A   1      25.461 -10.094  27.496  1.00  0.00    +0.000 C 
ATOM     58  F11 UNL A   1      26.393  -9.415  28.181  1.00  0.00    +0.000 F 
ATOM     59  C41 UNL A   1      25.046  -9.607  26.259  1.00  0.00    +0.000 C 
ATOM     60  F12 UNL A   1      25.575  -8.474  25.776  1.00  0.00    +0.000 F 
ATOM     61  C42 UNL A   1      24.076 -10.283  25.534  1.00  0.00    +0.000 C 
ATOM     62  F13 UNL A   1      23.678  -9.816  24.343  1.00  0.00    +0.000 F 
ATOM     63  C43 UNL A   1      23.512 -11.440  26.051  1.00  0.00    +0.000 C 
ATOM     64  F14 UNL A   1      22.583 -12.104  25.349  1.00  0.00    +0.000 F 
ENDBRANCH   55   56
TORSDOF 20
ENDMDL
MODEL 4
REMARK VINA RESULT:     -11.2     19.959     26.165
ROOT
ATOM     19  C15 UNL A   1      41.775  26.186  27.576  1.00  0.00    +0.000 C 
ATOM     20  C16 UNL A   1      43.146  26.563  27.087  1.00  0.00    +0.000 C 
ATOM     21  N3  UNL A   1      43.821  27.668  27.281  1.00  0.00    +0.000 N 
ATOM     22  C17 UNL A   1      45.046  27.476  26.657  1.00  0.00    +0.000 C 
ATOM     23  C18 UNL A   1      46.072  28.350  26.521  1.00  0.00    +0.000 C 
ATOM     35  C25 UNL A   1      46.059  29.699  27.024  1.00  0.00    +0.000 C 
ATOM     36  C26 UNL A   1      47.018  30.686  26.880  1.00  0.00    +0.000 C 
ATOM     37  C27 UNL A   1      46.586  31.821  27.575  1.00  0.00    +0.000 C 
ATOM     38  C28 UNL A   1      45.338  31.557  28.113  1.00  0.00    +0.000 C 
ATOM     39  N4  UNL A   1      45.028  30.250  27.772  1.00  0.00    +0.000 N 
ATOM     40  C29 UNL A   1      44.489  32.431  28.884  1.00  0.00    +0.000 C 
ATOM     52  C36 UNL A   1      43.271  32.097  29.375  1.00  0.00    +0.000 C 
ATOM     53  N5  UNL A   1      42.578  30.900  29.252  1.00  0.00    +0.000 N 
ATOM     54  C37 UNL A   1      41.454  31.066  29.906  1.00  0.00    +0.000 C 
ATOM     55  C38 UNL A   1      40.303  30.111  30.077  1.00  0.00    +0.000 C 
ATOM     67  C45 UNL A   1      40.368  28.895  29.506  1.00  0.00    +0.000 C 
ATOM     68  C46 UNL A   1      39.330  27.870  29.570  1.00  0.00    +0.000 C 
ATOM     69  C47 UNL A   1      39.745  26.783  28.899  1.00  0.00    +0.000 C 
ATOM     70  C48 UNL A   1      41.067  27.048  28.330  1.00  0.00    +0.000 C 
ATOM     71  N6  UNL A   1      41.362  28.319  28.752  1.00  0.00    +0.000 N 
ATOM     72  C49 UNL A   1      41.322  32.382  30.548  1.00  0.00    +0.000 C 
ATOM     73  C50 UNL A   1      42.435  32.984  30.158  1.00  0.00    +0.000 C 
ATOM     74  C51 UNL A   1      45.043  26.132  26.122  1.00  0.00    +0.000 C 
ATOM     75  C52 UNL A   1      43.867  25.550  26.299  1.00  0.00    +0.000 C 
ATOM    112  H21 UNL A   1      47.900  30.599  26.351  1.00  0.00    +0.000 H 
ATOM    113  H22 UNL A   1      47.111  32.705  27.670  1.00  0.00    +0.000 H 
ATOM    114  H23 UNL A   1      44.199  29.783  28.022  1.00  0.00    +0.000 H 
ATOM    115  H24 UNL A   1      38.424  27.966  30.053  1.00  0.00    +0.000 H 
ATOM    116  H25 UNL A   1      39.216  25.902  28.801  1.00  0.00    +0.000 H 
ATOM    117  H26 UNL A   1      42.208  28.777  28.536  1.00  0.00    +0.000 H 
ATOM    118  H27 UNL A   1      40.561  32.741  31.145  1.00  0.00    +0.000 H 
ATOM    119  H28 UNL A   1      42.677  33.961  30.384  1.00  0.00    +0.000 H 
ATOM    120  H29 UNL A   1      45.853  25.685  25.664  1.00  0.00    +0.000 H 
ATOM    121  H30 UNL A   1      43.540  24.629  25.970  1.00  0.00    +0.000 H 
ENDROOT
BRANCH   19   18
ATOM     76  C53 UNL A   1      40.207  24.706  26.320  1.00  0.00    +0.000 C 
ATOM     77  C54 UNL A   1      39.646  23.458  26.061  1.00  0.00    +0.000 C 
ATOM    110  H19 UNL A   1      41.532  21.603  28.127  1.00  0.00    +0.000 H 
ATOM     15  C11 UNL A   1      40.165  22.318  26.682  1.00  0.00    +0.000 C 
ATOM     16  C12 UNL A   1      41.171  22.441  27.646  1.00  0.00    +0.000 C 
ATOM     17  C13 UNL A   1      41.685  23.702  27.954  1.00  0.00    +0.000 C 
ATOM    111  H20 UNL A   1      42.408  23.797  28.684  1.00  0.00    +0.000 H 
ATOM     18  C14 UNL A   1      41.222  24.843  27.278  1.00  0.00    +0.000 C 
ATOM    122  H31 UNL A   1      39.873  25.535  25.804  1.00  0.00    +0.000 H 
ATOM    123  H32 UNL A   1      38.847  23.375  25.413  1.00  0.00    +0.000 H 
BRANCH   15   13
ATOM     13  C10 UNL A   1      39.647  20.970  26.364  1.00  0.00    +0.000 C 
ATOM     14  O2  UNL A   1      40.179  19.980  26.857  1.00  0.00    +0.000 O 
BRANCH   13   12
ATOM     12  N2  UNL A   1      38.584  20.826  25.508  1.00  0.00    +0.000 N 
ATOM    109  H18 UNL A   1      38.730  20.210  24.754  1.00  0.00    +0.000 H 
BRANCH   12   11
ATOM     11  C9  UNL A   1      37.275  21.453  25.558  1.00  0.00    +0.000 C 
ATOM    108  H17 UNL A   1      37.376  22.387  26.071  1.00  0.00    +0.000 H 
ATOM    107  H16 UNL A   1      36.598  20.801  26.069  1.00  0.00    +0.000 H 
BRANCH   11   10
ATOM    105  H14 UNL A   1      37.378  21.298  23.447  1.00  0.00    +0.000 H 
ATOM     10  C8  UNL A   1      36.723  21.742  24.166  1.00  0.00    +0.000 C 
ATOM    106  H15 UNL A   1      35.734  21.334  24.141  1.00  0.00    +0.000 H 
BRANCH   10    9
ATOM      9  C7  UNL A   1      36.585  23.229  23.832  1.00  0.00    +0.000 C 
ATOM    103  H12 UNL A   1      37.209  23.780  24.505  1.00  0.00    +0.000 H 
ATOM    104  H13 UNL A   1      36.873  23.334  22.807  1.00  0.00    +0.000 H 
BRANCH    9    8
ATOM    101  H10 UNL A   1      34.949  24.323  23.036  1.00  0.00    +0.000 H 
ATOM    102  H11 UNL A   1      34.523  22.945  24.096  1.00  0.00    +0.000 H 
ATOM      8  C6  UNL A   1      35.163  23.788  23.937  1.00  0.00    +0.000 C 
BRANCH    8    7
ATOM     99  H8  UNL A   1      34.430  24.187  25.897  1.00  0.00    +0.000 H 
ATOM    100  H9  UNL A   1      35.879  25.106  25.422  1.00  0.00    +0.000 H 
ATOM      7  C5  UNL A   1      34.921  24.736  25.121  1.00  0.00    +0.000 C 
BRANCH    7    6
ATOM     97  H6  UNL A   1      34.182  26.696  25.538  1.00  0.00    +0.000 H 
ATOM     98  H7  UNL A   1      34.381  26.343  23.830  1.00  0.00    +0.000 H 
ATOM      6  C4  UNL A   1      34.063  25.955  24.775  1.00  0.00    +0.000 C 
BRANCH    6    5
ATOM      5  N1  UNL A   1      32.667  25.588  24.682  1.00  0.00    +0.000 N 
ATOM     96  H5  UNL A   1      32.296  25.575  23.770  1.00  0.00    +0.000 H 
BRANCH    5    3
ATOM      3  C3  UNL A   1      31.787  25.255  25.672  1.00  0.00    +0.000 C 
ATOM      4  O1  UNL A   1      31.785  25.968  26.676  1.00  0.00    +0.000 O 
BRANCH    3    2
ATOM      2  C2  UNL A   1      30.924  23.995  25.527  1.00  0.00    +0.000 C 
ATOM     95  H4  UNL A   1      30.273  24.175  24.697  1.00  0.00    +0.000 H 
BRANCH    2    1
ATOM      1  C1  UNL A   1      30.008  23.741  26.731  1.00  0.00    +0.000 C 
ATOM     92  H1  UNL A   1      29.991  24.611  27.354  1.00  0.00    +0.000 H 
ATOM     93  H2  UNL A   1      30.377  22.908  27.291  1.00  0.00    +0.000 H 
ATOM     94  H3  UNL A   1      29.018  23.529  26.387  1.00  0.00    +0.000 H 
ENDBRANCH    2    1
BRANCH    2   78
ATOM    137  H46 UNL A   1      33.939  20.617  26.610  1.00  0.00    +0.000 H 
ATOM     78  C55 UNL A   1      31.777  22.775  25.212  1.00  0.00    +0.000 C 
ATOM     79  C56 UNL A   1      31.755  22.222  23.924  1.00  0.00    +0.000 C 
ATOM     80  C57 UNL A   1      32.483  21.065  23.637  1.00  0.00    +0.000 C 
ATOM     81  C58 UNL A   1      33.227  20.421  24.633  1.00  0.00    +0.000 C 
ATOM     89  C65 UNL A   1      33.330  21.030  25.888  1.00  0.00    +0.000 C 
ATOM     90  C66 UNL A   1      32.615  22.190  26.166  1.00  0.00    +0.000 C 
ATOM     91  F16 UNL A   1      32.716  22.713  27.396  1.00  0.00    +0.000 F 
ATOM    124  H33 UNL A   1      31.198  22.674  23.183  1.00  0.00    +0.000 H 
ATOM    125  H34 UNL A   1      32.472  20.680  22.680  1.00  0.00    +0.000 H 
BRANCH   81   82
ATOM     82  C59 UNL A   1      33.886  19.089  24.383  1.00  0.00    +0.000 C 
ATOM    126  H35 UNL A   1      34.544  18.897  25.205  1.00  0.00    +0.000 H 
ATOM    127  H36 UNL A   1      34.362  19.194  23.431  1.00  0.00    +0.000 H 
BRANCH   82   83
ATOM    129  H38 UNL A   1      31.349  17.048  25.396  1.00  0.00    +0.000 H 
ATOM    130  H39 UNL A   1      32.417  18.058  26.309  1.00  0.00    +0.000 H 
ATOM    131  H40 UNL A   1      32.543  15.249  26.097  1.00  0.00    +0.000 H 
ATOM    132  H41 UNL A   1      33.749  16.253  26.822  1.00  0.00    +0.000 H 
ATOM    133  H42 UNL A   1      34.118  14.740  24.522  1.00  0.00    +0.000 H 
ATOM    134  H43 UNL A   1      35.138  16.045  24.969  1.00  0.00    +0.000 H 
ATOM    135  H44 UNL A   1      32.808  16.043  23.062  1.00  0.00    +0.000 H 
ATOM     83  C60 UNL A   1      32.966  17.854  24.229  1.00  0.00    +0.000 C 
ATOM     84  C61 UNL A   1      32.375  17.317  25.540  1.00  0.00    +0.000 C 
ATOM     85  C62 UNL A   1      33.193  16.081  25.925  1.00  0.00    +0.000 C 
ATOM     86  C63 UNL A   1      34.123  15.785  24.753  1.00  0.00    +0.000 C 
ATOM     87  C64 UNL A   1      33.558  16.593  23.590  1.00  0.00    +0.000 C 
ATOM    128  H37 UNL A   1      32.246  18.308  23.581  1.00  0.00    +0.000 H 
BRANCH   87   88
ATOM    136  H45 UNL A   1      35.355  16.459  22.813  1.00  0.00    +0.000 H 
ATOM     88  O3  UNL A   1      34.502  16.855  22.573  1.00  0.00    +0.000 O 
ENDBRANCH   87   88
ENDBRANCH   82   83
ENDBRANCH   81   82
ENDBRANCH    2   78
ENDBRANCH    3    2
ENDBRANCH    5    3
ENDBRANCH    6    5
ENDBRANCH    7    6
ENDBRANCH    8    7
ENDBRANCH    9    8
ENDBRANCH   10    9
ENDBRANCH   11   10
ENDBRANCH   12   11
ENDBRANCH   13   12
ENDBRANCH   15   13
ENDBRANCH   19   18
BRANCH   23   24
ATOM     33  C24 UNL A   1      47.322  27.820  24.395  1.00  0.00    +0.000 C 
ATOM     34  F5  UNL A   1      46.253  28.212  23.685  1.00  0.00    +0.000 F 
ATOM     24  C19 UNL A   1      47.298  27.873  25.797  1.00  0.00    +0.000 C 
ATOM     25  C20 UNL A   1      48.442  27.446  26.489  1.00  0.00    +0.000 C 
ATOM     26  F1  UNL A   1      48.475  27.487  27.829  1.00  0.00    +0.000 F 
ATOM     27  C21 UNL A   1      49.576  27.018  25.803  1.00  0.00    +0.000 C 
ATOM     28  F2  UNL A   1      50.676  26.667  26.485  1.00  0.00    +0.000 F 
ATOM     29  C22 UNL A   1      49.575  26.971  24.418  1.00  0.00    +0.000 C 
ATOM     30  F3  UNL A   1      50.666  26.556  23.759  1.00  0.00    +0.000 F 
ATOM     31  C23 UNL A   1      48.447  27.363  23.714  1.00  0.00    +0.000 C 
ATOM     32  F4  UNL A   1      48.440  27.307  22.375  1.00  0.00    +0.000 F 
ENDBRANCH   23   24
BRANCH   40   41
ATOM     41  C30 UNL A   1      44.974  33.827  29.142  1.00  0.00    +0.000 C 
ATOM     42  C31 UNL A   1      45.786  34.132  30.243  1.00  0.00    +0.000 C 
ATOM     43  F6  UNL A   1      46.115  33.176  31.125  1.00  0.00    +0.000 F 
ATOM     44  C32 UNL A   1      46.230  35.433  30.465  1.00  0.00    +0.000 C 
ATOM     45  F7  UNL A   1      46.965  35.712  31.551  1.00  0.00    +0.000 F 
ATOM     46  C33 UNL A   1      45.900  36.444  29.574  1.00  0.00    +0.000 C 
ATOM     47  F8  UNL A   1      46.331  37.694  29.788  1.00  0.00    +0.000 F 
ATOM     48  C34 UNL A   1      45.114  36.160  28.468  1.00  0.00    +0.000 C 
ATOM     49  F9  UNL A   1      44.803  37.132  27.599  1.00  0.00    +0.000 F 
ATOM     50  C35 UNL A   1      44.644  34.866  28.259  1.00  0.00    +0.000 C 
ATOM     51  F10 UNL A   1      43.875  34.625  27.187  1.00  0.00    +0.000 F 
ENDBRANCH   40   41
BRANCH   55   56
ATOM     65  C44 UNL A   1      38.987  30.334  32.214  1.00  0.00    +0.000 C 
ATOM     66  F15 UNL A   1      40.001  29.779  32.893  1.00  0.00    +0.000 F 
ATOM     56  C39 UNL A   1      39.086  30.514  30.827  1.00  0.00    +0.000 C 
ATOM     57  C40 UNL A   1      37.997  31.095  30.162  1.00  0.00    +0.000 C 
ATOM     58  F11 UNL A   1      38.054  31.307  28.839  1.00  0.00    +0.000 F 
ATOM     59  C41 UNL A   1      36.860  31.497  30.860  1.00  0.00    +0.000 C 
ATOM     60  F12 UNL A   1      35.850  32.088  30.208  1.00  0.00    +0.000 F 
ATOM     61  C42 UNL A   1      36.779  31.300  32.231  1.00  0.00    +0.000 C 
ATOM     62  F13 UNL A   1      35.685  31.684  32.902  1.00  0.00    +0.000 F 
ATOM     63  C43 UNL A   1      37.839  30.713  32.906  1.00  0.00    +0.000 C 
ATOM     64  F14 UNL A   1      37.760  30.509  34.228  1.00  0.00    +0.000 F 
ENDBRANCH   55   56
TORSDOF 20
ENDMDL
MODEL 5
REMARK VINA RESULT:     -11.1      1.197      2.162
ROOT
ATOM     19  C15 UNL A   1      25.859  36.055  45.601  1.00  0.00    +0.000 C 
ATOM     20  C16 UNL A   1      25.746  37.220  46.545  1.00  0.00    +0.000 C 
ATOM     21  N3  UNL A   1      26.629  38.141  46.836  1.00  0.00    +0.000 N 
ATOM     22  C17 UNL A   1      25.998  39.003  47.723  1.00  0.00    +0.000 C 
ATOM     23  C18 UNL A   1      26.510  40.082  48.363  1.00  0.00    +0.000 C 
ATOM     35  C25 UNL A   1      27.870  40.534  48.227  1.00  0.00    +0.000 C 
ATOM     36  C26 UNL A   1      28.506  41.573  48.883  1.00  0.00    +0.000 C 
ATOM     37  C27 UNL A   1      29.814  41.664  48.395  1.00  0.00    +0.000 C 
ATOM     38  C28 UNL A   1      30.008  40.653  47.468  1.00  0.00    +0.000 C 
ATOM     39  N4  UNL A   1      28.805  39.970  47.371  1.00  0.00    +0.000 N 
ATOM     40  C29 UNL A   1      31.199  40.332  46.724  1.00  0.00    +0.000 C 
ATOM     52  C36 UNL A   1      31.310  39.318  45.833  1.00  0.00    +0.000 C 
ATOM     53  N5  UNL A   1      30.357  38.384  45.449  1.00  0.00    +0.000 N 
ATOM     54  C37 UNL A   1      30.939  37.619  44.558  1.00  0.00    +0.000 C 
ATOM     55  C38 UNL A   1      30.393  36.422  43.829  1.00  0.00    +0.000 C 
ATOM     67  C45 UNL A   1      29.132  36.021  44.076  1.00  0.00    +0.000 C 
ATOM     68  C46 UNL A   1      28.470  34.874  43.461  1.00  0.00    +0.000 C 
ATOM     69  C47 UNL A   1      27.216  34.787  43.934  1.00  0.00    +0.000 C 
ATOM     70  C48 UNL A   1      26.997  35.855  44.910  1.00  0.00    +0.000 C 
ATOM     71  N6  UNL A   1      28.183  36.545  44.920  1.00  0.00    +0.000 N 
ATOM     72  C49 UNL A   1      32.325  38.004  44.251  1.00  0.00    +0.000 C 
ATOM     73  C50 UNL A   1      32.513  39.016  45.085  1.00  0.00    +0.000 C 
ATOM     74  C51 UNL A   1      24.642  38.526  47.884  1.00  0.00    +0.000 C 
ATOM     75  C52 UNL A   1      24.456  37.387  47.234  1.00  0.00    +0.000 C 
ATOM    112  H21 UNL A   1      28.086  42.177  49.608  1.00  0.00    +0.000 H 
ATOM    113  H22 UNL A   1      30.515  42.367  48.678  1.00  0.00    +0.000 H 
ATOM    114  H23 UNL A   1      28.640  39.199  46.783  1.00  0.00    +0.000 H 
ATOM    115  H24 UNL A   1      28.897  34.234  42.774  1.00  0.00    +0.000 H 
ATOM    116  H25 UNL A   1      26.518  34.080  43.653  1.00  0.00    +0.000 H 
ATOM    117  H26 UNL A   1      28.340  37.341  45.479  1.00  0.00    +0.000 H 
ATOM    118  H27 UNL A   1      32.977  37.593  43.565  1.00  0.00    +0.000 H 
ATOM    119  H28 UNL A   1      33.405  39.526  45.188  1.00  0.00    +0.000 H 
ATOM    120  H29 UNL A   1      23.914  39.011  48.433  1.00  0.00    +0.000 H 
ATOM    121  H30 UNL A   1      23.625  36.777  47.216  1.00  0.00    +0.000 H 
ENDROOT
BRANCH   19   18
ATOM     76  C53 UNL A   1      23.698  35.523  44.472  1.00  0.00    +0.000 C 
ATOM     77  C54 UNL A   1      22.580  34.713  44.291  1.00  0.00    +0.000 C 
ATOM    110  H19 UNL A   1      23.412  32.209  46.367  1.00  0.00    +0.000 H 
ATOM     15  C11 UNL A   1      22.501  33.478  44.943  1.00  0.00    +0.000 C 
ATOM     16  C12 UNL A   1      23.487  33.106  45.862  1.00  0.00    +0.000 C 
ATOM     17  C13 UNL A   1      24.573  33.952  46.094  1.00  0.00    +0.000 C 
ATOM    111  H20 UNL A   1      25.288  33.690  46.791  1.00  0.00    +0.000 H 
ATOM     18  C14 UNL A   1      24.699  35.157  45.384  1.00  0.00    +0.000 C 
ATOM    122  H31 UNL A   1      23.791  36.397  43.932  1.00  0.00    +0.000 H 
ATOM    123  H32 UNL A   1      21.811  35.023  43.677  1.00  0.00    +0.000 H 
BRANCH   15   13
ATOM     13  C10 UNL A   1      21.368  32.558  44.705  1.00  0.00    +0.000 C 
ATOM     14  O2  UNL A   1      21.202  32.071  43.591  1.00  0.00    +0.000 O 
BRANCH   13   12
ATOM     12  N2  UNL A   1      20.496  32.262  45.723  1.00  0.00    +0.000 N 
ATOM    109  H18 UNL A   1      20.812  31.587  46.366  1.00  0.00    +0.000 H 
BRANCH   12   11
ATOM     11  C9  UNL A   1      19.173  32.803  45.984  1.00  0.00    +0.000 C 
ATOM    108  H17 UNL A   1      19.073  32.932  47.042  1.00  0.00    +0.000 H 
ATOM    107  H16 UNL A   1      18.440  32.123  45.604  1.00  0.00    +0.000 H 
BRANCH   11   10
ATOM    105  H14 UNL A   1      19.397  34.910  45.961  1.00  0.00    +0.000 H 
ATOM     10  C8  UNL A   1      18.969  34.164  45.327  1.00  0.00    +0.000 C 
ATOM    106  H15 UNL A   1      19.437  34.110  44.366  1.00  0.00    +0.000 H 
BRANCH   10    9
ATOM      9  C7  UNL A   1      17.505  34.535  45.074  1.00  0.00    +0.000 C 
ATOM    103  H12 UNL A   1      16.904  34.025  45.797  1.00  0.00    +0.000 H 
ATOM    104  H13 UNL A   1      17.449  35.601  45.154  1.00  0.00    +0.000 H 
BRANCH    9    8
ATOM    101  H10 UNL A   1      16.069  33.631  43.800  1.00  0.00    +0.000 H 
ATOM    102  H11 UNL A   1      16.852  35.110  43.165  1.00  0.00    +0.000 H 
ATOM      8  C6  UNL A   1      16.979  34.181  43.680  1.00  0.00    +0.000 C 
BRANCH    8    7
ATOM     99  H8  UNL A   1      18.494  34.003  42.194  1.00  0.00    +0.000 H 
ATOM    100  H9  UNL A   1      18.551  32.785  43.492  1.00  0.00    +0.000 H 
ATOM      7  C5  UNL A   1      17.932  33.340  42.818  1.00  0.00    +0.000 C 
BRANCH    7    6
ATOM     97  H6  UNL A   1      16.203  32.615  41.795  1.00  0.00    +0.000 H 
ATOM     98  H7  UNL A   1      17.722  32.287  40.978  1.00  0.00    +0.000 H 
ATOM      6  C4  UNL A   1      17.224  32.320  41.924  1.00  0.00    +0.000 C 
BRANCH    6    5
ATOM      5  N1  UNL A   1      17.266  31.002  42.519  1.00  0.00    +0.000 N 
ATOM     96  H5  UNL A   1      18.153  30.575  42.530  1.00  0.00    +0.000 H 
BRANCH    5    3
ATOM      3  C3  UNL A   1      16.259  30.263  43.069  1.00  0.00    +0.000 C 
ATOM      4  O1  UNL A   1      15.124  30.740  43.011  1.00  0.00    +0.000 O 
BRANCH    3    2
ATOM      2  C2  UNL A   1      16.587  28.948  43.788  1.00  0.00    +0.000 C 
ATOM     95  H4  UNL A   1      16.186  29.041  44.775  1.00  0.00    +0.000 H 
BRANCH    2    1
ATOM      1  C1  UNL A   1      18.091  28.709  43.968  1.00  0.00    +0.000 C 
ATOM     92  H1  UNL A   1      18.316  27.684  43.763  1.00  0.00    +0.000 H 
ATOM     93  H2  UNL A   1      18.371  28.942  44.974  1.00  0.00    +0.000 H 
ATOM     94  H3  UNL A   1      18.635  29.336  43.293  1.00  0.00    +0.000 H 
ENDBRANCH    2    1
BRANCH    2   78
ATOM    137  H46 UNL A   1      14.446  24.814  43.755  1.00  0.00    +0.000 H 
ATOM     78  C55 UNL A   1      15.915  27.765  43.106  1.00  0.00    +0.000 C 
ATOM     79  C56 UNL A   1      15.764  27.756  41.713  1.00  0.00    +0.000 C 
ATOM     80  C57 UNL A   1      15.092  26.708  41.079  1.00  0.00    +0.000 C 
ATOM     81  C58 UNL A   1      14.535  25.661  41.823  1.00  0.00    +0.000 C 
ATOM     89  C65 UNL A   1      14.776  25.619  43.200  1.00  0.00    +0.000 C 
ATOM     90  C66 UNL A   1      15.457  26.657  43.826  1.00  0.00    +0.000 C 
ATOM     91  F16 UNL A   1      15.628  26.590  45.153  1.00  0.00    +0.000 F 
ATOM    124  H33 UNL A   1      16.152  28.529  41.151  1.00  0.00    +0.000 H 
ATOM    125  H34 UNL A   1      15.004  26.705  40.051  1.00  0.00    +0.000 H 
BRANCH   81   82
ATOM     82  C59 UNL A   1      13.672  24.609  41.174  1.00  0.00    +0.000 C 
ATOM    126  H35 UNL A   1      13.255  25.038  40.287  1.00  0.00    +0.000 H 
ATOM    127  H36 UNL A   1      12.964  24.334  41.927  1.00  0.00    +0.000 H 
BRANCH   82   83
ATOM    129  H38 UNL A   1      15.782  22.739  39.255  1.00  0.00    +0.000 H 
ATOM    130  H39 UNL A   1      14.909  24.187  38.888  1.00  0.00    +0.000 H 
ATOM    131  H40 UNL A   1      14.271  21.582  38.017  1.00  0.00    +0.000 H 
ATOM    132  H41 UNL A   1      13.264  22.973  37.832  1.00  0.00    +0.000 H 
ATOM    133  H42 UNL A   1      12.645  20.765  39.398  1.00  0.00    +0.000 H 
ATOM    134  H43 UNL A   1      11.878  22.290  39.569  1.00  0.00    +0.000 H 
ATOM    135  H44 UNL A   1      14.185  21.156  41.135  1.00  0.00    +0.000 H 
ATOM     83  C60 UNL A   1      14.352  23.279  40.768  1.00  0.00    +0.000 C 
ATOM     84  C61 UNL A   1      14.821  23.208  39.309  1.00  0.00    +0.000 C 
ATOM     85  C62 UNL A   1      13.787  22.375  38.547  1.00  0.00    +0.000 C 
ATOM     86  C63 UNL A   1      12.829  21.802  39.587  1.00  0.00    +0.000 C 
ATOM     87  C64 UNL A   1      13.544  21.985  40.920  1.00  0.00    +0.000 C 
ATOM    128  H37 UNL A   1      15.149  23.317  41.480  1.00  0.00    +0.000 H 
BRANCH   87   88
ATOM    136  H45 UNL A   1      11.755  21.943  41.725  1.00  0.00    +0.000 H 
ATOM     88  O3  UNL A   1      12.674  21.980  42.033  1.00  0.00    +0.000 O 
ENDBRANCH   87   88
ENDBRANCH   82   83
ENDBRANCH   81   82
ENDBRANCH    2   78
ENDBRANCH    3    2
ENDBRANCH    5    3
ENDBRANCH    6    5
ENDBRANCH    7    6
ENDBRANCH    8    7
ENDBRANCH    9    8
ENDBRANCH   10    9
ENDBRANCH   11   10
ENDBRANCH   12   11
ENDBRANCH   13   12
ENDBRANCH   15   13
ENDBRANCH   19   18
BRANCH   23   24
ATOM     33  C24 UNL A   1      25.461  40.486  50.620  1.00  0.00    +0.000 C 
ATOM     34  F5  UNL A   1      26.167  39.460  51.118  1.00  0.00    +0.000 F 
ATOM     24  C19 UNL A   1      25.592  40.848  49.271  1.00  0.00    +0.000 C 
ATOM     25  C20 UNL A   1      24.826  41.927  48.804  1.00  0.00    +0.000 C 
ATOM     26  F1  UNL A   1      24.923  42.321  47.525  1.00  0.00    +0.000 F 
ATOM     27  C21 UNL A   1      23.989  42.636  49.662  1.00  0.00    +0.000 C 
ATOM     28  F2  UNL A   1      23.308  43.697  49.205  1.00  0.00    +0.000 F 
ATOM     29  C22 UNL A   1      23.872  42.258  50.990  1.00  0.00    +0.000 C 
ATOM     30  F3  UNL A   1      23.064  42.939  51.815  1.00  0.00    +0.000 F 
ATOM     31  C23 UNL A   1      24.600  41.179  51.468  1.00  0.00    +0.000 C 
ATOM     32  F4  UNL A   1      24.479  40.805  52.749  1.00  0.00    +0.000 F 
ENDBRANCH   23   24
BRANCH   40   41
ATOM     41  C30 UNL A   1      32.422  41.165  46.971  1.00  0.00    +0.000 C 
ATOM     42  C31 UNL A   1      33.499  40.686  47.731  1.00  0.00    +0.000 C 
ATOM     43  F6  UNL A   1      33.437  39.471  48.297  1.00  0.00    +0.000 F 
ATOM     44  C32 UNL A   1      34.628  41.471  47.946  1.00  0.00    +0.000 C 
ATOM     45  F7  UNL A   1      35.624  41.012  48.716  1.00  0.00    +0.000 F 
ATOM     46  C33 UNL A   1      34.717  42.735  47.380  1.00  0.00    +0.000 C 
ATOM     47  F8  UNL A   1      35.806  43.487  47.585  1.00  0.00    +0.000 F 
ATOM     48  C34 UNL A   1      33.672  43.220  46.608  1.00  0.00    +0.000 C 
ATOM     49  F9  UNL A   1      33.760  44.436  46.050  1.00  0.00    +0.000 F 
ATOM     50  C35 UNL A   1      32.529  42.449  46.415  1.00  0.00    +0.000 C 
ATOM     51  F10 UNL A   1      31.530  42.952  45.676  1.00  0.00    +0.000 F 
ENDBRANCH   40   41
BRANCH   55   56
ATOM     65  C44 UNL A   1      31.956  34.521  43.288  1.00  0.00    +0.000 C 
ATOM     66  F15 UNL A   1      31.889  34.106  44.561  1.00  0.00    +0.000 F 
ATOM     56  C39 UNL A   1      31.242  35.657  42.881  1.00  0.00    +0.000 C 
ATOM     57  C40 UNL A   1      31.349  36.051  41.539  1.00  0.00    +0.000 C 
ATOM     58  F11 UNL A   1      30.667  37.119  41.099  1.00  0.00    +0.000 F 
ATOM     59  C41 UNL A   1      32.125  35.328  40.637  1.00  0.00    +0.000 C 
ATOM     60  F12 UNL A   1      32.176  35.701  39.351  1.00  0.00    +0.000 F 
ATOM     61  C42 UNL A   1      32.830  34.212  41.063  1.00  0.00    +0.000 C 
ATOM     62  F13 UNL A   1      33.579  33.518  40.196  1.00  0.00    +0.000 F 
ATOM     63  C43 UNL A   1      32.752  33.813  42.390  1.00  0.00    +0.000 C 
ATOM     64  F14 UNL A   1      33.442  32.744  42.809  1.00  0.00    +0.000 F 
ENDBRANCH   55   56
TORSDOF 20
ENDMDL
MODEL 6
REMARK VINA RESULT:     -11.1      4.295      8.295
ROOT
ATOM     19  C15 UNL A   1      22.253  35.818  47.320  1.00  0.00    +0.000 C 
ATOM     20  C16 UNL A   1      20.906  36.201  47.868  1.00  0.00    +0.000 C 
ATOM     21  N3  UNL A   1      20.497  37.354  48.335  1.00  0.00    +0.000 N 
ATOM     22  C17 UNL A   1      19.160  37.176  48.661  1.00  0.00    +0.000 C 
ATOM     23  C18 UNL A   1      18.306  38.055  49.238  1.00  0.00    +0.000 C 
ATOM     35  C25 UNL A   1      18.666  39.391  49.636  1.00  0.00    +0.000 C 
ATOM     36  C26 UNL A   1      17.896  40.336  50.289  1.00  0.00    +0.000 C 
ATOM     37  C27 UNL A   1      18.657  41.502  50.428  1.00  0.00    +0.000 C 
ATOM     38  C28 UNL A   1      19.916  41.269  49.901  1.00  0.00    +0.000 C 
ATOM     39  N4  UNL A   1      19.907  39.971  49.414  1.00  0.00    +0.000 N 
ATOM     40  C29 UNL A   1      21.046  42.162  49.844  1.00  0.00    +0.000 C 
ATOM     52  C36 UNL A   1      22.254  41.855  49.312  1.00  0.00    +0.000 C 
ATOM     53  N5  UNL A   1      22.677  40.666  48.735  1.00  0.00    +0.000 N 
ATOM     54  C37 UNL A   1      23.918  40.866  48.364  1.00  0.00    +0.000 C 
ATOM     55  C38 UNL A   1      24.884  39.910  47.718  1.00  0.00    +0.000 C 
ATOM     67  C45 UNL A   1      24.486  38.653  47.450  1.00  0.00    +0.000 C 
ATOM     68  C46 UNL A   1      25.310  37.613  46.842  1.00  0.00    +0.000 C 
ATOM     69  C47 UNL A   1      24.578  36.493  46.714  1.00  0.00    +0.000 C 
ATOM     70  C48 UNL A   1      23.242  36.730  47.262  1.00  0.00    +0.000 C 
ATOM     71  N6  UNL A   1      23.275  38.042  47.663  1.00  0.00    +0.000 N 
ATOM     72  C49 UNL A   1      24.414  42.223  48.637  1.00  0.00    +0.000 C 
ATOM     73  C50 UNL A   1      23.376  42.769  49.252  1.00  0.00    +0.000 C 
ATOM     74  C51 UNL A   1      18.810  35.821  48.292  1.00  0.00    +0.000 C 
ATOM     75  C52 UNL A   1      19.871  35.155  47.863  1.00  0.00    +0.000 C 
ATOM    112  H21 UNL A   1      16.926  40.204  50.619  1.00  0.00    +0.000 H 
ATOM    113  H22 UNL A   1      18.333  42.387  50.850  1.00  0.00    +0.000 H 
ATOM    114  H23 UNL A   1      20.668  39.527  48.977  1.00  0.00    +0.000 H 
ATOM    115  H24 UNL A   1      26.295  37.720  46.556  1.00  0.00    +0.000 H 
ATOM    116  H25 UNL A   1      24.906  35.609  46.296  1.00  0.00    +0.000 H 
ATOM    117  H26 UNL A   1      22.502  38.502  48.066  1.00  0.00    +0.000 H 
ATOM    118  H27 UNL A   1      25.330  42.639  48.408  1.00  0.00    +0.000 H 
ATOM    119  H28 UNL A   1      23.367  43.726  49.639  1.00  0.00    +0.000 H 
ATOM    120  H29 UNL A   1      17.858  35.427  48.353  1.00  0.00    +0.000 H 
ATOM    121  H30 UNL A   1      19.951  34.161  47.596  1.00  0.00    +0.000 H 
ENDROOT
BRANCH   19   18
ATOM     76  C53 UNL A   1      22.421  34.225  45.407  1.00  0.00    +0.000 C 
ATOM     77  C54 UNL A   1      22.586  32.940  44.896  1.00  0.00    +0.000 C 
ATOM    110  H19 UNL A   1      23.179  31.312  47.772  1.00  0.00    +0.000 H 
ATOM     15  C11 UNL A   1      22.916  31.885  45.755  1.00  0.00    +0.000 C 
ATOM     16  C12 UNL A   1      22.968  32.097  47.136  1.00  0.00    +0.000 C 
ATOM     17  C13 UNL A   1      22.734  33.373  47.652  1.00  0.00    +0.000 C 
ATOM    111  H20 UNL A   1      22.746  33.524  48.673  1.00  0.00    +0.000 H 
ATOM     18  C14 UNL A   1      22.480  34.452  46.789  1.00  0.00    +0.000 C 
ATOM    122  H31 UNL A   1      22.254  35.014  44.763  1.00  0.00    +0.000 H 
ATOM    123  H32 UNL A   1      22.466  32.765  43.887  1.00  0.00    +0.000 H 
BRANCH   15   13
ATOM     13  C10 UNL A   1      23.181  30.528  45.232  1.00  0.00    +0.000 C 
ATOM     14  O2  UNL A   1      24.306  30.048  45.327  1.00  0.00    +0.000 O 
BRANCH   13   12
ATOM     12  N2  UNL A   1      22.176  29.813  44.631  1.00  0.00    +0.000 N 
ATOM    109  H18 UNL A   1      22.395  29.436  43.749  1.00  0.00    +0.000 H 
BRANCH   12   11
ATOM     11  C9  UNL A   1      20.834  29.534  45.113  1.00  0.00    +0.000 C 
ATOM    108  H17 UNL A   1      20.913  29.176  46.119  1.00  0.00    +0.000 H 
ATOM    107  H16 UNL A   1      20.383  28.802  44.476  1.00  0.00    +0.000 H 
BRANCH   11   10
ATOM    105  H14 UNL A   1      19.500  30.858  46.092  1.00  0.00    +0.000 H 
ATOM     10  C8  UNL A   1      19.957  30.781  45.127  1.00  0.00    +0.000 C 
ATOM    106  H15 UNL A   1      20.600  31.606  44.900  1.00  0.00    +0.000 H 
BRANCH   10    9
ATOM      9  C7  UNL A   1      18.849  30.792  44.072  1.00  0.00    +0.000 C 
ATOM    103  H12 UNL A   1      18.204  31.621  44.276  1.00  0.00    +0.000 H 
ATOM    104  H13 UNL A   1      19.340  30.861  43.123  1.00  0.00    +0.000 H 
BRANCH    9    8
ATOM    101  H10 UNL A   1      18.173  29.039  43.084  1.00  0.00    +0.000 H 
ATOM    102  H11 UNL A   1      18.277  28.936  44.867  1.00  0.00    +0.000 H 
ATOM      8  C6  UNL A   1      17.992  29.523  44.020  1.00  0.00    +0.000 C 
BRANCH    8    7
ATOM     99  H8  UNL A   1      16.094  29.061  44.870  1.00  0.00    +0.000 H 
ATOM    100  H9  UNL A   1      16.346  30.773  44.450  1.00  0.00    +0.000 H 
ATOM      7  C5  UNL A   1      16.479  29.754  44.151  1.00  0.00    +0.000 C 
BRANCH    7    6
ATOM     97  H6  UNL A   1      15.143  30.458  42.641  1.00  0.00    +0.000 H 
ATOM     98  H7  UNL A   1      16.407  29.389  42.053  1.00  0.00    +0.000 H 
ATOM      6  C4  UNL A   1      15.707  29.571  42.842  1.00  0.00    +0.000 C 
BRANCH    6    5
ATOM      5  N1  UNL A   1      14.806  28.444  42.934  1.00  0.00    +0.000 N 
ATOM     96  H5  UNL A   1      13.973  28.611  43.433  1.00  0.00    +0.000 H 
BRANCH    5    3
ATOM      3  C3  UNL A   1      14.936  27.182  42.429  1.00  0.00    +0.000 C 
ATOM      4  O1  UNL A   1      15.038  27.081  41.205  1.00  0.00    +0.000 O 
BRANCH    3    2
ATOM      2  C2  UNL A   1      14.870  25.975  43.374  1.00  0.00    +0.000 C 
ATOM     95  H4  UNL A   1      14.231  26.265  44.182  1.00  0.00    +0.000 H 
BRANCH    2    1
ATOM      1  C1  UNL A   1      16.220  25.626  44.014  1.00  0.00    +0.000 C 
ATOM     92  H1  UNL A   1      16.553  26.449  44.611  1.00  0.00    +0.000 H 
ATOM     93  H2  UNL A   1      16.938  25.429  43.245  1.00  0.00    +0.000 H 
ATOM     94  H3  UNL A   1      16.109  24.759  44.629  1.00  0.00    +0.000 H 
ENDBRANCH    2    1
BRANCH    2   78
ATOM    137  H46 UNL A   1      11.294  23.407  41.861  1.00  0.00    +0.000 H 
ATOM     78  C55 UNL A   1      14.254  24.768  42.684  1.00  0.00    +0.000 C 
ATOM     79  C56 UNL A   1      15.082  23.784  42.126  1.00  0.00    +0.000 C 
ATOM     80  C57 UNL A   1      14.532  22.702  41.434  1.00  0.00    +0.000 C 
ATOM     81  C58 UNL A   1      13.147  22.592  41.261  1.00  0.00    +0.000 C 
ATOM     89  C65 UNL A   1      12.319  23.518  41.905  1.00  0.00    +0.000 C 
ATOM     90  C66 UNL A   1      12.870  24.585  42.606  1.00  0.00    +0.000 C 
ATOM     91  F16 UNL A   1      12.034  25.466  43.172  1.00  0.00    +0.000 F 
ATOM    124  H33 UNL A   1      16.106  23.859  42.229  1.00  0.00    +0.000 H 
ATOM    125  H34 UNL A   1      15.153  21.977  41.045  1.00  0.00    +0.000 H 
BRANCH   81   82
ATOM     82  C59 UNL A   1      12.548  21.523  40.384  1.00  0.00    +0.000 C 
ATOM    126  H35 UNL A   1      12.871  21.712  39.382  1.00  0.00    +0.000 H 
ATOM    127  H36 UNL A   1      11.493  21.597  40.546  1.00  0.00    +0.000 H 
BRANCH   82   83
ATOM    129  H38 UNL A   1      14.123  18.563  39.763  1.00  0.00    +0.000 H 
ATOM    130  H39 UNL A   1      13.592  19.807  38.683  1.00  0.00    +0.000 H 
ATOM    131  H40 UNL A   1      12.354  17.306  39.094  1.00  0.00    +0.000 H 
ATOM    132  H41 UNL A   1      11.685  18.617  38.189  1.00  0.00    +0.000 H 
ATOM    133  H42 UNL A   1      10.623  17.618  40.552  1.00  0.00    +0.000 H 
ATOM    134  H43 UNL A   1      10.228  19.162  39.918  1.00  0.00    +0.000 H 
ATOM    135  H44 UNL A   1      12.260  18.455  42.023  1.00  0.00    +0.000 H 
ATOM     83  C60 UNL A   1      12.895  20.052  40.714  1.00  0.00    +0.000 C 
ATOM     84  C61 UNL A   1      13.295  19.193  39.507  1.00  0.00    +0.000 C 
ATOM     85  C62 UNL A   1      12.078  18.338  39.143  1.00  0.00    +0.000 C 
ATOM     86  C63 UNL A   1      11.044  18.552  40.244  1.00  0.00    +0.000 C 
ATOM     87  C64 UNL A   1      11.819  19.194  41.389  1.00  0.00    +0.000 C 
ATOM    128  H37 UNL A   1      13.700  20.256  41.389  1.00  0.00    +0.000 H 
BRANCH   87   88
ATOM    136  H45 UNL A   1      10.420  20.508  41.800  1.00  0.00    +0.000 H 
ATOM     88  O3  UNL A   1      11.002  19.908  42.294  1.00  0.00    +0.000 O 
ENDBRANCH   87   88
ENDBRANCH   82   83
ENDBRANCH   81   82
ENDBRANCH    2   78
ENDBRANCH    3    2
ENDBRANCH    5    3
ENDBRANCH    6    5
ENDBRANCH    7    6
ENDBRANCH    8    7
ENDBRANCH    9    8
ENDBRANCH   10    9
ENDBRANCH   11   10
ENDBRANCH   12   11
ENDBRANCH   13   12
ENDBRANCH   15   13
ENDBRANCH   19   18
BRANCH   23   24
ATOM     33  C24 UNL A   1      16.034  37.362  48.393  1.00  0.00    +0.000 C 
ATOM     34  F5  UNL A   1      16.466  37.527  47.134  1.00  0.00    +0.000 F 
ATOM     24  C19 UNL A   1      16.896  37.598  49.474  1.00  0.00    +0.000 C 
ATOM     25  C20 UNL A   1      16.389  37.413  50.770  1.00  0.00    +0.000 C 
ATOM     26  F1  UNL A   1      17.175  37.614  51.837  1.00  0.00    +0.000 F 
ATOM     27  C21 UNL A   1      15.082  36.976  50.972  1.00  0.00    +0.000 C 
ATOM     28  F2  UNL A   1      14.637  36.754  52.217  1.00  0.00    +0.000 F 
ATOM     29  C22 UNL A   1      14.247  36.752  49.889  1.00  0.00    +0.000 C 
ATOM     30  F3  UNL A   1      12.989  36.334  50.084  1.00  0.00    +0.000 F 
ATOM     31  C23 UNL A   1      14.718  36.953  48.600  1.00  0.00    +0.000 C 
ATOM     32  F4  UNL A   1      13.909  36.749  47.552  1.00  0.00    +0.000 F 
ENDBRANCH   23   24
BRANCH   40   41
ATOM     41  C30 UNL A   1      20.887  43.529  50.441  1.00  0.00    +0.000 C 
ATOM     42  C31 UNL A   1      20.426  44.615  49.683  1.00  0.00    +0.000 C 
ATOM     43  F6  UNL A   1      20.156  44.461  48.378  1.00  0.00    +0.000 F 
ATOM     44  C32 UNL A   1      20.281  45.876  50.256  1.00  0.00    +0.000 C 
ATOM     45  F7  UNL A   1      19.886  46.910  49.501  1.00  0.00    +0.000 F 
ATOM     46  C33 UNL A   1      20.560  46.067  51.601  1.00  0.00    +0.000 C 
ATOM     47  F8  UNL A   1      20.415  47.280  52.151  1.00  0.00    +0.000 F 
ATOM     48  C34 UNL A   1      20.997  45.002  52.374  1.00  0.00    +0.000 C 
ATOM     49  F9  UNL A   1      21.255  45.181  53.677  1.00  0.00    +0.000 F 
ATOM     50  C35 UNL A   1      21.171  43.747  51.798  1.00  0.00    +0.000 C 
ATOM     51  F10 UNL A   1      21.609  42.739  52.567  1.00  0.00    +0.000 F 
ENDBRANCH   40   41
BRANCH   55   56
ATOM     65  C44 UNL A   1      27.269  40.342  48.406  1.00  0.00    +0.000 C 
ATOM     66  F15 UNL A   1      26.969  39.983  49.663  1.00  0.00    +0.000 F 
ATOM     56  C39 UNL A   1      26.278  40.327  47.416  1.00  0.00    +0.000 C 
ATOM     57  C40 UNL A   1      26.642  40.715  46.118  1.00  0.00    +0.000 C 
ATOM     58  F11 UNL A   1      25.733  40.696  45.133  1.00  0.00    +0.000 F 
ATOM     59  C41 UNL A   1      27.951  41.086  45.820  1.00  0.00    +0.000 C 
ATOM     60  F12 UNL A   1      28.283  41.411  44.563  1.00  0.00    +0.000 F 
ATOM     61  C42 UNL A   1      28.915  41.102  46.818  1.00  0.00    +0.000 C 
ATOM     62  F13 UNL A   1      30.173  41.461  46.532  1.00  0.00    +0.000 F 
ATOM     63  C43 UNL A   1      28.572  40.737  48.112  1.00  0.00    +0.000 C 
ATOM     64  F14 UNL A   1      29.497  40.765  49.081  1.00  0.00    +0.000 F 
ENDBRANCH   55   56
TORSDOF 20
ENDMDL
MODEL 7
REMARK VINA RESULT:     -11.1      1.073      2.071
ROOT
ATOM     19  C15 UNL A   1      25.539  35.512  45.411  1.00  0.00    +0.000 C 
ATOM     20  C16 UNL A   1      25.303  36.670  46.341  1.00  0.00    +0.000 C 
ATOM     21  N3  UNL A   1      26.106  37.652  46.663  1.00  0.00    +0.000 N 
ATOM     22  C17 UNL A   1      25.378  38.471  47.515  1.00  0.00    +0.000 C 
ATOM     23  C18 UNL A   1      25.785  39.586  48.169  1.00  0.00    +0.000 C 
ATOM     35  C25 UNL A   1      27.114  40.132  48.088  1.00  0.00    +0.000 C 
ATOM     36  C26 UNL A   1      27.646  41.216  48.764  1.00  0.00    +0.000 C 
ATOM     37  C27 UNL A   1      28.965  41.397  48.332  1.00  0.00    +0.000 C 
ATOM     38  C28 UNL A   1      29.269  40.399  47.421  1.00  0.00    +0.000 C 
ATOM     39  N4  UNL A   1      28.123  39.632  47.278  1.00  0.00    +0.000 N 
ATOM     40  C29 UNL A   1      30.511  40.160  46.731  1.00  0.00    +0.000 C 
ATOM     52  C36 UNL A   1      30.732  39.152  45.853  1.00  0.00    +0.000 C 
ATOM     53  N5  UNL A   1      29.864  38.152  45.435  1.00  0.00    +0.000 N 
ATOM     54  C37 UNL A   1      30.537  37.426  44.575  1.00  0.00    +0.000 C 
ATOM     55  C38 UNL A   1      30.108  36.190  43.833  1.00  0.00    +0.000 C 
ATOM     67  C45 UNL A   1      28.869  35.703  44.028  1.00  0.00    +0.000 C 
ATOM     68  C46 UNL A   1      28.316  34.509  43.393  1.00  0.00    +0.000 C 
ATOM     69  C47 UNL A   1      27.052  34.336  43.813  1.00  0.00    +0.000 C 
ATOM     70  C48 UNL A   1      26.717  35.390  44.771  1.00  0.00    +0.000 C 
ATOM     71  N6  UNL A   1      27.850  36.161  44.826  1.00  0.00    +0.000 N 
ATOM     72  C49 UNL A   1      31.903  37.907  44.325  1.00  0.00    +0.000 C 
ATOM     73  C50 UNL A   1      31.984  38.933  45.159  1.00  0.00    +0.000 C 
ATOM     74  C51 UNL A   1      24.053  37.900  47.622  1.00  0.00    +0.000 C 
ATOM     75  C52 UNL A   1      23.976  36.748  46.973  1.00  0.00    +0.000 C 
ATOM    112  H21 UNL A   1      27.155  41.792  49.465  1.00  0.00    +0.000 H 
ATOM    113  H22 UNL A   1      29.602  42.149  48.639  1.00  0.00    +0.000 H 
ATOM    114  H23 UNL A   1      28.038  38.849  46.688  1.00  0.00    +0.000 H 
ATOM    115  H24 UNL A   1      28.816  33.898  42.730  1.00  0.00    +0.000 H 
ATOM    116  H25 UNL A   1      26.419  33.580  43.507  1.00  0.00    +0.000 H 
ATOM    117  H26 UNL A   1      27.925  36.969  45.386  1.00  0.00    +0.000 H 
ATOM    118  H27 UNL A   1      32.612  37.540  43.671  1.00  0.00    +0.000 H 
ATOM    119  H28 UNL A   1      32.832  39.505  45.296  1.00  0.00    +0.000 H 
ATOM    120  H29 UNL A   1      23.270  38.335  48.136  1.00  0.00    +0.000 H 
ATOM    121  H30 UNL A   1      23.191  36.081  46.923  1.00  0.00    +0.000 H 
ENDROOT
BRANCH   19   18
ATOM     76  C53 UNL A   1      24.501  33.268  45.755  1.00  0.00    +0.000 C 
ATOM     77  C54 UNL A   1      23.515  32.323  45.485  1.00  0.00    +0.000 C 
ATOM    110  H19 UNL A   1      21.569  34.165  43.463  1.00  0.00    +0.000 H 
ATOM     15  C11 UNL A   1      22.417  32.668  44.690  1.00  0.00    +0.000 C 
ATOM     16  C12 UNL A   1      22.363  33.922  44.075  1.00  0.00    +0.000 C 
ATOM     17  C13 UNL A   1      23.388  34.845  44.292  1.00  0.00    +0.000 C 
ATOM    111  H20 UNL A   1      23.363  35.761  43.817  1.00  0.00    +0.000 H 
ATOM     18  C14 UNL A   1      24.455  34.534  45.151  1.00  0.00    +0.000 C 
ATOM    122  H31 UNL A   1      25.271  33.037  46.403  1.00  0.00    +0.000 H 
ATOM    123  H32 UNL A   1      23.595  31.369  45.870  1.00  0.00    +0.000 H 
BRANCH   15   13
ATOM     13  C10 UNL A   1      21.312  31.713  44.456  1.00  0.00    +0.000 C 
ATOM     14  O2  UNL A   1      21.486  30.516  44.665  1.00  0.00    +0.000 O 
BRANCH   13   12
ATOM     12  N2  UNL A   1      20.101  32.162  43.994  1.00  0.00    +0.000 N 
ATOM    109  H18 UNL A   1      20.072  32.386  43.035  1.00  0.00    +0.000 H 
BRANCH   12   11
ATOM     11  C9  UNL A   1      18.856  32.353  44.718  1.00  0.00    +0.000 C 
ATOM    108  H17 UNL A   1      18.969  33.213  45.345  1.00  0.00    +0.000 H 
ATOM    107  H16 UNL A   1      18.654  31.475  45.295  1.00  0.00    +0.000 H 
BRANCH   11   10
ATOM    105  H14 UNL A   1      16.797  32.211  44.238  1.00  0.00    +0.000 H 
ATOM     10  C8  UNL A   1      17.680  32.608  43.782  1.00  0.00    +0.000 C 
ATOM    106  H15 UNL A   1      17.635  33.666  43.632  1.00  0.00    +0.000 H 
BRANCH   10    9
ATOM      9  C7  UNL A   1      17.824  31.979  42.394  1.00  0.00    +0.000 C 
ATOM    103  H12 UNL A   1      18.100  32.751  41.706  1.00  0.00    +0.000 H 
ATOM    104  H13 UNL A   1      18.564  31.212  42.488  1.00  0.00    +0.000 H 
BRANCH    9    8
ATOM    101  H10 UNL A   1      15.839  32.053  41.645  1.00  0.00    +0.000 H 
ATOM    102  H11 UNL A   1      16.866  30.738  40.998  1.00  0.00    +0.000 H 
ATOM      8  C6  UNL A   1      16.562  31.294  41.859  1.00  0.00    +0.000 C 
BRANCH    8    7
ATOM     99  H8  UNL A   1      15.644  30.792  43.715  1.00  0.00    +0.000 H 
ATOM    100  H9  UNL A   1      15.072  29.866  42.305  1.00  0.00    +0.000 H 
ATOM      7  C5  UNL A   1      15.917  30.280  42.816  1.00  0.00    +0.000 C 
BRANCH    7    6
ATOM     97  H6  UNL A   1      17.847  29.384  42.999  1.00  0.00    +0.000 H 
ATOM     98  H7  UNL A   1      16.693  28.880  44.222  1.00  0.00    +0.000 H 
ATOM      6  C4  UNL A   1      16.830  29.109  43.186  1.00  0.00    +0.000 C 
BRANCH    6    5
ATOM      5  N1  UNL A   1      16.502  27.937  42.403  1.00  0.00    +0.000 N 
ATOM     96  H5  UNL A   1      17.271  27.470  42.004  1.00  0.00    +0.000 H 
BRANCH    5    3
ATOM      3  C3  UNL A   1      15.283  27.382  42.137  1.00  0.00    +0.000 C 
ATOM      4  O1  UNL A   1      14.861  27.495  40.985  1.00  0.00    +0.000 O 
BRANCH    3    2
ATOM      2  C2  UNL A   1      14.481  26.732  43.271  1.00  0.00    +0.000 C 
ATOM     95  H4  UNL A   1      13.562  27.278  43.336  1.00  0.00    +0.000 H 
BRANCH    2    1
ATOM      1  C1  UNL A   1      15.146  26.870  44.647  1.00  0.00    +0.000 C 
ATOM     92  H1  UNL A   1      15.100  25.932  45.159  1.00  0.00    +0.000 H 
ATOM     93  H2  UNL A   1      14.632  27.615  45.218  1.00  0.00    +0.000 H 
ATOM     94  H3  UNL A   1      16.168  27.160  44.521  1.00  0.00    +0.000 H 
ENDBRANCH    2    1
BRANCH    2   78
ATOM    137  H46 UNL A   1      11.575  23.188  42.457  1.00  0.00    +0.000 H 
ATOM     78  C55 UNL A   1      14.156  25.280  42.955  1.00  0.00    +0.000 C 
ATOM     79  C56 UNL A   1      15.194  24.359  42.759  1.00  0.00    +0.000 C 
ATOM     80  C57 UNL A   1      14.912  23.037  42.405  1.00  0.00    +0.000 C 
ATOM     81  C58 UNL A   1      13.591  22.613  42.214  1.00  0.00    +0.000 C 
ATOM     89  C65 UNL A   1      12.555  23.505  42.510  1.00  0.00    +0.000 C 
ATOM     90  C66 UNL A   1      12.840  24.816  42.876  1.00  0.00    +0.000 C 
ATOM     91  F16 UNL A   1      11.811  25.642  43.110  1.00  0.00    +0.000 F 
ATOM    124  H33 UNL A   1      16.174  24.659  42.878  1.00  0.00    +0.000 H 
ATOM    125  H34 UNL A   1      15.686  22.366  42.282  1.00  0.00    +0.000 H 
BRANCH   81   82
ATOM     82  C59 UNL A   1      13.278  21.240  41.678  1.00  0.00    +0.000 C 
ATOM    126  H35 UNL A   1      12.750  20.710  42.444  1.00  0.00    +0.000 H 
ATOM    127  H36 UNL A   1      14.227  20.829  41.407  1.00  0.00    +0.000 H 
BRANCH   82   83
ATOM    129  H38 UNL A   1      10.641  20.085  39.850  1.00  0.00    +0.000 H 
ATOM    130  H39 UNL A   1      11.500  19.366  41.169  1.00  0.00    +0.000 H 
ATOM    131  H40 UNL A   1      11.724  18.665  38.446  1.00  0.00    +0.000 H 
ATOM    132  H41 UNL A   1      12.752  18.098  39.713  1.00  0.00    +0.000 H 
ATOM    133  H42 UNL A   1      13.574  19.712  37.608  1.00  0.00    +0.000 H 
ATOM    134  H43 UNL A   1      14.465  19.530  39.063  1.00  0.00    +0.000 H 
ATOM    135  H44 UNL A   1      12.529  21.706  38.300  1.00  0.00    +0.000 H 
ATOM     83  C60 UNL A   1      12.429  21.154  40.387  1.00  0.00    +0.000 C 
ATOM     84  C61 UNL A   1      11.617  19.861  40.228  1.00  0.00    +0.000 C 
ATOM     85  C62 UNL A   1      12.376  18.977  39.235  1.00  0.00    +0.000 C 
ATOM     86  C63 UNL A   1      13.513  19.822  38.671  1.00  0.00    +0.000 C 
ATOM     87  C64 UNL A   1      13.156  21.257  39.042  1.00  0.00    +0.000 C 
ATOM    128  H37 UNL A   1      11.831  22.023  40.565  1.00  0.00    +0.000 H 
BRANCH   87   88
ATOM    136  H45 UNL A   1      14.125  22.843  38.412  1.00  0.00    +0.000 H 
ATOM     88  O3  UNL A   1      14.266  22.130  39.056  1.00  0.00    +0.000 O 
ENDBRANCH   87   88
ENDBRANCH   82   83
ENDBRANCH   81   82
ENDBRANCH    2   78
ENDBRANCH    3    2
ENDBRANCH    5    3
ENDBRANCH    6    5
ENDBRANCH    7    6
ENDBRANCH    8    7
ENDBRANCH    9    8
ENDBRANCH   10    9
ENDBRANCH   11   10
ENDBRANCH   12   11
ENDBRANCH   13   12
ENDBRANCH   15   13
ENDBRANCH   19   18
BRANCH   23   24
ATOM     33  C24 UNL A   1      23.994  41.328  48.508  1.00  0.00    +0.000 C 
ATOM     34  F5  UNL A   1      24.126  41.695  47.225  1.00  0.00    +0.000 F 
ATOM     24  C19 UNL A   1      24.777  40.289  49.032  1.00  0.00    +0.000 C 
ATOM     25  C20 UNL A   1      24.600  39.950  50.383  1.00  0.00    +0.000 C 
ATOM     26  F1  UNL A   1      25.315  38.956  50.929  1.00  0.00    +0.000 F 
ATOM     27  C21 UNL A   1      23.652  40.603  51.166  1.00  0.00    +0.000 C 
ATOM     28  F2  UNL A   1      23.462  40.225  52.439  1.00  0.00    +0.000 F 
ATOM     29  C22 UNL A   1      22.892  41.630  50.629  1.00  0.00    +0.000 C 
ATOM     30  F3  UNL A   1      21.981  42.259  51.385  1.00  0.00    +0.000 F 
ATOM     31  C23 UNL A   1      23.067  41.999  49.304  1.00  0.00    +0.000 C 
ATOM     32  F4  UNL A   1      22.342  42.999  48.786  1.00  0.00    +0.000 F 
ENDBRANCH   23   24
BRANCH   40   41
ATOM     41  C30 UNL A   1      31.661  41.078  47.024  1.00  0.00    +0.000 C 
ATOM     42  C31 UNL A   1      32.758  40.663  47.793  1.00  0.00    +0.000 C 
ATOM     43  F6  UNL A   1      32.780  39.432  48.327  1.00  0.00    +0.000 F 
ATOM     44  C32 UNL A   1      33.818  41.527  48.052  1.00  0.00    +0.000 C 
ATOM     45  F7  UNL A   1      34.832  41.126  48.830  1.00  0.00    +0.000 F 
ATOM     46  C33 UNL A   1      33.818  42.809  47.520  1.00  0.00    +0.000 C 
ATOM     47  F8  UNL A   1      34.841  43.637  47.766  1.00  0.00    +0.000 F 
ATOM     48  C34 UNL A   1      32.753  43.233  46.739  1.00  0.00    +0.000 C 
ATOM     49  F9  UNL A   1      32.757  44.466  46.214  1.00  0.00    +0.000 F 
ATOM     50  C35 UNL A   1      31.678  42.381  46.503  1.00  0.00    +0.000 C 
ATOM     51  F10 UNL A   1      30.656  42.824  45.757  1.00  0.00    +0.000 F 
ENDBRANCH   40   41
BRANCH   55   56
ATOM     65  C44 UNL A   1      31.769  34.358  43.351  1.00  0.00    +0.000 C 
ATOM     66  F15 UNL A   1      31.624  33.900  44.603  1.00  0.00    +0.000 F 
ATOM     56  C39 UNL A   1      31.048  35.483  42.927  1.00  0.00    +0.000 C 
ATOM     57  C40 UNL A   1      31.239  35.924  41.609  1.00  0.00    +0.000 C 
ATOM     58  F11 UNL A   1      30.556  36.983  41.152  1.00  0.00    +0.000 F 
ATOM     59  C41 UNL A   1      32.103  35.254  40.745  1.00  0.00    +0.000 C 
ATOM     60  F12 UNL A   1      32.235  35.671  39.478  1.00  0.00    +0.000 F 
ATOM     61  C42 UNL A   1      32.812  34.148  41.189  1.00  0.00    +0.000 C 
ATOM     62  F13 UNL A   1      33.645  33.506  40.359  1.00  0.00    +0.000 F 
ATOM     63  C43 UNL A   1      32.651  33.705  42.494  1.00  0.00    +0.000 C 
ATOM     64  F14 UNL A   1      33.345  32.644  42.930  1.00  0.00    +0.000 F 
ENDBRANCH   55   56
TORSDOF 20
ENDMDL
MODEL 8
REMARK VINA RESULT:     -11.1     43.623     47.133
ROOT
ATOM     19  C15 UNL A   1      13.754  53.896   4.987  1.00  0.00    +0.000 C 
ATOM     20  C16 UNL A   1      14.705  54.349   3.913  1.00  0.00    +0.000 C 
ATOM     21  N3  UNL A   1      15.189  53.680   2.897  1.00  0.00    +0.000 N 
ATOM     22  C17 UNL A   1      15.975  54.580   2.192  1.00  0.00    +0.000 C 
ATOM     23  C18 UNL A   1      16.740  54.359   1.096  1.00  0.00    +0.000 C 
ATOM     35  C25 UNL A   1      16.875  53.080   0.449  1.00  0.00    +0.000 C 
ATOM     36  C26 UNL A   1      17.676  52.734  -0.624  1.00  0.00    +0.000 C 
ATOM     37  C27 UNL A   1      17.443  51.389  -0.930  1.00  0.00    +0.000 C 
ATOM     38  C28 UNL A   1      16.530  50.884  -0.019  1.00  0.00    +0.000 C 
ATOM     39  N4  UNL A   1      16.186  51.933   0.819  1.00  0.00    +0.000 N 
ATOM     40  C29 UNL A   1      16.007  49.545   0.082  1.00  0.00    +0.000 C 
ATOM     52  C36 UNL A   1      15.114  49.126   1.011  1.00  0.00    +0.000 C 
ATOM     53  N5  UNL A   1      14.526  49.845   2.042  1.00  0.00    +0.000 N 
ATOM     54  C37 UNL A   1      13.729  49.005   2.658  1.00  0.00    +0.000 C 
ATOM     55  C38 UNL A   1      12.867  49.228   3.871  1.00  0.00    +0.000 C 
ATOM     67  C45 UNL A   1      12.860  50.437   4.461  1.00  0.00    +0.000 C 
ATOM     68  C46 UNL A   1      12.090  50.800   5.647  1.00  0.00    +0.000 C 
ATOM     69  C47 UNL A   1      12.320  52.091   5.940  1.00  0.00    +0.000 C 
ATOM     70  C48 UNL A   1      13.279  52.637   4.979  1.00  0.00    +0.000 C 
ATOM     71  N6  UNL A   1      13.534  51.589   4.132  1.00  0.00    +0.000 N 
ATOM     72  C49 UNL A   1      13.698  47.662   2.063  1.00  0.00    +0.000 C 
ATOM     73  C50 UNL A   1      14.590  47.778   1.090  1.00  0.00    +0.000 C 
ATOM     74  C51 UNL A   1      15.865  55.857   2.865  1.00  0.00    +0.000 C 
ATOM     75  C52 UNL A   1      15.149  55.751   3.975  1.00  0.00    +0.000 C 
ATOM    112  H21 UNL A   1      18.333  53.361  -1.115  1.00  0.00    +0.000 H 
ATOM    113  H22 UNL A   1      17.877  50.863  -1.705  1.00  0.00    +0.000 H 
ATOM    114  H23 UNL A   1      15.548  51.874   1.566  1.00  0.00    +0.000 H 
ATOM    115  H24 UNL A   1      11.471  50.166   6.174  1.00  0.00    +0.000 H 
ATOM    116  H25 UNL A   1      11.888  52.613   6.719  1.00  0.00    +0.000 H 
ATOM    117  H26 UNL A   1      14.142  51.655   3.359  1.00  0.00    +0.000 H 
ATOM    118  H27 UNL A   1      13.130  46.843   2.333  1.00  0.00    +0.000 H 
ATOM    119  H28 UNL A   1      14.876  47.006   0.468  1.00  0.00    +0.000 H 
ATOM    120  H29 UNL A   1      16.288  56.734   2.525  1.00  0.00    +0.000 H 
ATOM    121  H30 UNL A   1      14.954  56.464   4.694  1.00  0.00    +0.000 H 
ENDROOT
BRANCH   19   18
ATOM     76  C53 UNL A   1      14.019  54.989   7.215  1.00  0.00    +0.000 C 
ATOM     77  C54 UNL A   1      13.574  55.848   8.216  1.00  0.00    +0.000 C 
ATOM    110  H19 UNL A   1      10.870  57.094   6.666  1.00  0.00    +0.000 H 
ATOM     15  C11 UNL A   1      12.454  56.655   7.995  1.00  0.00    +0.000 C 
ATOM     16  C12 UNL A   1      11.715  56.521   6.816  1.00  0.00    +0.000 C 
ATOM     17  C13 UNL A   1      12.124  55.609   5.841  1.00  0.00    +0.000 C 
ATOM    111  H20 UNL A   1      11.564  55.490   4.982  1.00  0.00    +0.000 H 
ATOM     18  C14 UNL A   1      13.292  54.851   6.023  1.00  0.00    +0.000 C 
ATOM    122  H31 UNL A   1      14.889  54.450   7.350  1.00  0.00    +0.000 H 
ATOM    123  H32 UNL A   1      14.069  55.888   9.121  1.00  0.00    +0.000 H 
BRANCH   15   13
ATOM     13  C10 UNL A   1      12.008  57.638   9.006  1.00  0.00    +0.000 C 
ATOM     14  O2  UNL A   1      12.268  58.828   8.856  1.00  0.00    +0.000 O 
BRANCH   13   12
ATOM     12  N2  UNL A   1      11.317  57.219  10.115  1.00  0.00    +0.000 N 
ATOM    109  H18 UNL A   1      11.626  57.594  10.972  1.00  0.00    +0.000 H 
BRANCH   12   11
ATOM     11  C9  UNL A   1      10.195  56.300  10.205  1.00  0.00    +0.000 C 
ATOM    108  H17 UNL A   1      10.093  55.812   9.258  1.00  0.00    +0.000 H 
ATOM    107  H16 UNL A   1       9.314  56.854  10.453  1.00  0.00    +0.000 H 
BRANCH   11   10
ATOM    105  H14 UNL A   1       9.610  54.525  11.203  1.00  0.00    +0.000 H 
ATOM     10  C8  UNL A   1      10.416  55.226  11.264  1.00  0.00    +0.000 C 
ATOM    106  H15 UNL A   1      11.370  54.788  11.058  1.00  0.00    +0.000 H 
BRANCH   10    9
ATOM      9  C7  UNL A   1      10.482  55.752  12.700  1.00  0.00    +0.000 C 
ATOM    103  H12 UNL A   1      10.521  56.820  12.661  1.00  0.00    +0.000 H 
ATOM    104  H13 UNL A   1       9.611  55.377  13.196  1.00  0.00    +0.000 H 
BRANCH    9    8
ATOM    101  H10 UNL A   1      12.141  56.112  13.975  1.00  0.00    +0.000 H 
ATOM    102  H11 UNL A   1      11.300  54.550  14.214  1.00  0.00    +0.000 H 
ATOM      8  C6  UNL A   1      11.684  55.262  13.514  1.00  0.00    +0.000 C 
BRANCH    8    7
ATOM     99  H8  UNL A   1      12.298  54.093  11.842  1.00  0.00    +0.000 H 
ATOM    100  H9  UNL A   1      13.508  55.248  12.451  1.00  0.00    +0.000 H 
ATOM      7  C5  UNL A   1      12.761  54.525  12.704  1.00  0.00    +0.000 C 
BRANCH    7    6
ATOM     97  H6  UNL A   1      14.110  53.849  14.217  1.00  0.00    +0.000 H 
ATOM     98  H7  UNL A   1      12.728  52.798  13.952  1.00  0.00    +0.000 H 
ATOM      6  C4  UNL A   1      13.468  53.411  13.481  1.00  0.00    +0.000 C 
BRANCH    6    5
ATOM      5  N1  UNL A   1      14.257  52.588  12.590  1.00  0.00    +0.000 N 
ATOM     96  H5  UNL A   1      15.174  52.906  12.426  1.00  0.00    +0.000 H 
BRANCH    5    3
ATOM      3  C3  UNL A   1      13.919  51.433  11.945  1.00  0.00    +0.000 C 
ATOM      4  O1  UNL A   1      14.302  50.379  12.455  1.00  0.00    +0.000 O 
BRANCH    3    2
ATOM      2  C2  UNL A   1      13.168  51.501  10.609  1.00  0.00    +0.000 C 
ATOM     95  H4  UNL A   1      12.905  52.529  10.469  1.00  0.00    +0.000 H 
BRANCH    2    1
ATOM      1  C1  UNL A   1      11.843  50.728  10.613  1.00  0.00    +0.000 C 
ATOM     92  H1  UNL A   1      11.028  51.420  10.661  1.00  0.00    +0.000 H 
ATOM     93  H2  UNL A   1      11.811  50.079  11.464  1.00  0.00    +0.000 H 
ATOM     94  H3  UNL A   1      11.766  50.147   9.719  1.00  0.00    +0.000 H 
ENDBRANCH    2    1
BRANCH    2   78
ATOM    137  H46 UNL A   1      16.597  52.131   7.524  1.00  0.00    +0.000 H 
ATOM     78  C55 UNL A   1      14.058  51.071   9.453  1.00  0.00    +0.000 C 
ATOM     79  C56 UNL A   1      13.899  49.800   8.885  1.00  0.00    +0.000 C 
ATOM     80  C57 UNL A   1      14.752  49.367   7.866  1.00  0.00    +0.000 C 
ATOM     81  C58 UNL A   1      15.795  50.181   7.411  1.00  0.00    +0.000 C 
ATOM     89  C65 UNL A   1      15.888  51.486   7.906  1.00  0.00    +0.000 C 
ATOM     90  C66 UNL A   1      15.029  51.919   8.911  1.00  0.00    +0.000 C 
ATOM     91  F16 UNL A   1      15.184  53.164   9.379  1.00  0.00    +0.000 F 
ATOM    124  H33 UNL A   1      13.147  49.180   9.221  1.00  0.00    +0.000 H 
ATOM    125  H34 UNL A   1      14.611  48.435   7.445  1.00  0.00    +0.000 H 
BRANCH   81   82
ATOM     82  C59 UNL A   1      16.818  49.670   6.430  1.00  0.00    +0.000 C 
ATOM    126  H35 UNL A   1      17.128  48.702   6.764  1.00  0.00    +0.000 H 
ATOM    127  H36 UNL A   1      17.584  50.417   6.420  1.00  0.00    +0.000 H 
BRANCH   82   83
ATOM    129  H38 UNL A   1      15.996  47.854   3.664  1.00  0.00    +0.000 H 
ATOM    130  H39 UNL A   1      17.028  47.471   4.998  1.00  0.00    +0.000 H 
ATOM    131  H40 UNL A   1      17.851  48.195   2.399  1.00  0.00    +0.000 H 
ATOM    132  H41 UNL A   1      18.890  48.042   3.771  1.00  0.00    +0.000 H 
ATOM    133  H42 UNL A   1      18.376  50.418   2.429  1.00  0.00    +0.000 H 
ATOM    134  H43 UNL A   1      19.028  50.351   4.015  1.00  0.00    +0.000 H 
ATOM    135  H44 UNL A   1      16.164  50.738   3.172  1.00  0.00    +0.000 H 
ATOM     83  C60 UNL A   1      16.383  49.533   4.951  1.00  0.00    +0.000 C 
ATOM     84  C61 UNL A   1      16.797  48.221   4.272  1.00  0.00    +0.000 C 
ATOM     85  C62 UNL A   1      18.017  48.534   3.400  1.00  0.00    +0.000 C 
ATOM     86  C63 UNL A   1      18.193  50.049   3.417  1.00  0.00    +0.000 C 
ATOM     87  C64 UNL A   1      16.874  50.591   3.957  1.00  0.00    +0.000 C 
ATOM    128  H37 UNL A   1      15.330  49.624   5.116  1.00  0.00    +0.000 H 
BRANCH   87   88
ATOM    136  H45 UNL A   1      17.151  51.823   5.459  1.00  0.00    +0.000 H 
ATOM     88  O3  UNL A   1      16.979  51.888   4.506  1.00  0.00    +0.000 O 
ENDBRANCH   87   88
ENDBRANCH   82   83
ENDBRANCH   81   82
ENDBRANCH    2   78
ENDBRANCH    3    2
ENDBRANCH    5    3
ENDBRANCH    6    5
ENDBRANCH    7    6
ENDBRANCH    8    7
ENDBRANCH    9    8
ENDBRANCH   10    9
ENDBRANCH   11   10
ENDBRANCH   12   11
ENDBRANCH   13   12
ENDBRANCH   15   13
ENDBRANCH   19   18
BRANCH   23   24
ATOM     33  C24 UNL A   1      18.773  55.847   0.999  1.00  0.00    +0.000 C 
ATOM     34  F5  UNL A   1      19.349  55.100   1.953  1.00  0.00    +0.000 F 
ATOM     24  C19 UNL A   1      17.491  55.527   0.528  1.00  0.00    +0.000 C 
ATOM     25  C20 UNL A   1      16.935  56.346  -0.468  1.00  0.00    +0.000 C 
ATOM     26  F1  UNL A   1      15.717  56.077  -0.961  1.00  0.00    +0.000 F 
ATOM     27  C21 UNL A   1      17.650  57.419  -0.995  1.00  0.00    +0.000 C 
ATOM     28  F2  UNL A   1      17.120  58.153  -1.984  1.00  0.00    +0.000 F 
ATOM     29  C22 UNL A   1      18.914  57.718  -0.512  1.00  0.00    +0.000 C 
ATOM     30  F3  UNL A   1      19.600  58.752  -1.018  1.00  0.00    +0.000 F 
ATOM     31  C23 UNL A   1      19.473  56.938   0.490  1.00  0.00    +0.000 C 
ATOM     32  F4  UNL A   1      20.690  57.233   0.967  1.00  0.00    +0.000 F 
ENDBRANCH   23   24
BRANCH   40   41
ATOM     41  C30 UNL A   1      16.508  48.524  -0.897  1.00  0.00    +0.000 C 
ATOM     42  C31 UNL A   1      17.720  47.847  -0.701  1.00  0.00    +0.000 C 
ATOM     43  F6  UNL A   1      18.489  48.135   0.360  1.00  0.00    +0.000 F 
ATOM     44  C32 UNL A   1      18.167  46.900  -1.618  1.00  0.00    +0.000 C 
ATOM     45  F7  UNL A   1      19.351  46.300  -1.436  1.00  0.00    +0.000 F 
ATOM     46  C33 UNL A   1      17.396  46.588  -2.729  1.00  0.00    +0.000 C 
ATOM     47  F8  UNL A   1      17.826  45.673  -3.608  1.00  0.00    +0.000 F 
ATOM     48  C34 UNL A   1      16.185  47.231  -2.932  1.00  0.00    +0.000 C 
ATOM     49  F9  UNL A   1      15.433  46.923  -3.998  1.00  0.00    +0.000 F 
ATOM     50  C35 UNL A   1      15.749  48.199  -2.032  1.00  0.00    +0.000 C 
ATOM     51  F10 UNL A   1      14.580  48.814  -2.263  1.00  0.00    +0.000 F 
ENDBRANCH   40   41
BRANCH   55   56
ATOM     65  C44 UNL A   1      12.629  47.180   5.320  1.00  0.00    +0.000 C 
ATOM     66  F15 UNL A   1      13.925  47.265   5.650  1.00  0.00    +0.000 F 
ATOM     56  C39 UNL A   1      12.063  48.119   4.446  1.00  0.00    +0.000 C 
ATOM     57  C40 UNL A   1      10.704  47.983   4.129  1.00  0.00    +0.000 C 
ATOM     58  F11 UNL A   1      10.114  48.869   3.314  1.00  0.00    +0.000 F 
ATOM     59  C41 UNL A   1       9.936  46.959   4.681  1.00  0.00    +0.000 C 
ATOM     60  F12 UNL A   1       8.629  46.877   4.395  1.00  0.00    +0.000 F 
ATOM     61  C42 UNL A   1      10.519  46.036   5.537  1.00  0.00    +0.000 C 
ATOM     62  F13 UNL A   1       9.781  45.050   6.065  1.00  0.00    +0.000 F 
ATOM     63  C43 UNL A   1      11.866  46.142   5.851  1.00  0.00    +0.000 C 
ATOM     64  F14 UNL A   1      12.435  45.245   6.667  1.00  0.00    +0.000 F 
ENDBRANCH   55   56
TORSDOF 20
ENDMDL
MODEL 9
REMARK VINA RESULT:     -11.0     20.265     26.184
ROOT
ATOM     19  C15 UNL A   1      41.408  26.210  27.398  1.00  0.00    +0.000 C 
ATOM     20  C16 UNL A   1      42.810  26.521  26.954  1.00  0.00    +0.000 C 
ATOM     21  N3  UNL A   1      43.547  27.574  27.208  1.00  0.00    +0.000 N 
ATOM     22  C17 UNL A   1      44.772  27.332  26.601  1.00  0.00    +0.000 C 
ATOM     23  C18 UNL A   1      45.852  28.146  26.524  1.00  0.00    +0.000 C 
ATOM     35  C25 UNL A   1      45.910  29.471  27.084  1.00  0.00    +0.000 C 
ATOM     36  C26 UNL A   1      46.930  30.401  27.002  1.00  0.00    +0.000 C 
ATOM     37  C27 UNL A   1      46.553  31.532  27.736  1.00  0.00    +0.000 C 
ATOM     38  C28 UNL A   1      45.279  31.324  28.237  1.00  0.00    +0.000 C 
ATOM     39  N4  UNL A   1      44.897  30.054  27.833  1.00  0.00    +0.000 N 
ATOM     40  C29 UNL A   1      44.467  32.215  29.027  1.00  0.00    +0.000 C 
ATOM     52  C36 UNL A   1      43.220  31.937  29.478  1.00  0.00    +0.000 C 
ATOM     53  N5  UNL A   1      42.458  30.792  29.290  1.00  0.00    +0.000 N 
ATOM     54  C37 UNL A   1      41.332  31.000  29.927  1.00  0.00    +0.000 C 
ATOM     55  C38 UNL A   1      40.121  30.112  30.033  1.00  0.00    +0.000 C 
ATOM     67  C45 UNL A   1      40.125  28.918  29.412  1.00  0.00    +0.000 C 
ATOM     68  C46 UNL A   1      39.025  27.958  29.412  1.00  0.00    +0.000 C 
ATOM     69  C47 UNL A   1      39.388  26.876  28.703  1.00  0.00    +0.000 C 
ATOM     70  C48 UNL A   1      40.737  27.082  28.173  1.00  0.00    +0.000 C 
ATOM     71  N6  UNL A   1      41.099  28.314  28.655  1.00  0.00    +0.000 N 
ATOM     72  C49 UNL A   1      41.265  32.293  30.622  1.00  0.00    +0.000 C 
ATOM     73  C50 UNL A   1      42.422  32.841  30.281  1.00  0.00    +0.000 C 
ATOM     74  C51 UNL A   1      44.699  26.014  26.010  1.00  0.00    +0.000 C 
ATOM     75  C52 UNL A   1      43.486  25.500  26.138  1.00  0.00    +0.000 C 
ATOM    112  H21 UNL A   1      47.817  30.282  26.488  1.00  0.00    +0.000 H 
ATOM    113  H22 UNL A   1      47.128  32.376  27.880  1.00  0.00    +0.000 H 
ATOM    114  H23 UNL A   1      44.036  29.628  28.047  1.00  0.00    +0.000 H 
ATOM    115  H24 UNL A   1      38.115  28.090  29.880  1.00  0.00    +0.000 H 
ATOM    116  H25 UNL A   1      38.808  26.035  28.556  1.00  0.00    +0.000 H 
ATOM    117  H26 UNL A   1      41.976  28.727  28.476  1.00  0.00    +0.000 H 
ATOM    118  H27 UNL A   1      40.514  32.674  31.219  1.00  0.00    +0.000 H 
ATOM    119  H28 UNL A   1      42.718  33.792  30.553  1.00  0.00    +0.000 H 
ATOM    120  H29 UNL A   1      45.491  25.537  25.549  1.00  0.00    +0.000 H 
ATOM    121  H30 UNL A   1      43.111  24.615  25.763  1.00  0.00    +0.000 H 
ENDROOT
BRANCH   19   18
ATOM     76  C53 UNL A   1      39.607  24.907  26.262  1.00  0.00    +0.000 C 
ATOM     77  C54 UNL A   1      38.982  23.704  25.948  1.00  0.00    +0.000 C 
ATOM    110  H19 UNL A   1      41.166  21.594  27.379  1.00  0.00    +0.000 H 
ATOM     15  C11 UNL A   1      39.579  22.491  26.311  1.00  0.00    +0.000 C 
ATOM     16  C12 UNL A   1      40.743  22.488  27.085  1.00  0.00    +0.000 C 
ATOM     17  C13 UNL A   1      41.332  23.698  27.458  1.00  0.00    +0.000 C 
ATOM    111  H20 UNL A   1      42.176  23.697  28.051  1.00  0.00    +0.000 H 
ATOM     18  C14 UNL A   1      40.781  24.917  27.031  1.00  0.00    +0.000 C 
ATOM    122  H31 UNL A   1      39.205  25.797  25.928  1.00  0.00    +0.000 H 
ATOM    123  H32 UNL A   1      38.079  23.705  25.449  1.00  0.00    +0.000 H 
BRANCH   15   13
ATOM     13  C10 UNL A   1      38.983  21.197  25.917  1.00  0.00    +0.000 C 
ATOM     14  O2  UNL A   1      39.504  20.149  26.285  1.00  0.00    +0.000 O 
BRANCH   13   12
ATOM     12  N2  UNL A   1      37.859  21.168  25.131  1.00  0.00    +0.000 N 
ATOM    109  H18 UNL A   1      38.013  21.302  24.168  1.00  0.00    +0.000 H 
BRANCH   12   11
ATOM     11  C9  UNL A   1      36.473  20.966  25.518  1.00  0.00    +0.000 C 
ATOM    108  H17 UNL A   1      36.398  21.133  26.573  1.00  0.00    +0.000 H 
ATOM    107  H16 UNL A   1      36.184  19.969  25.262  1.00  0.00    +0.000 H 
BRANCH   11   10
ATOM    105  H14 UNL A   1      35.717  21.894  23.769  1.00  0.00    +0.000 H 
ATOM     10  C8  UNL A   1      35.534  21.945  24.822  1.00  0.00    +0.000 C 
ATOM    106  H15 UNL A   1      34.539  21.653  25.089  1.00  0.00    +0.000 H 
BRANCH   10    9
ATOM      9  C7  UNL A   1      35.691  23.402  25.263  1.00  0.00    +0.000 C 
ATOM    103  H12 UNL A   1      36.568  23.472  25.872  1.00  0.00    +0.000 H 
ATOM    104  H13 UNL A   1      35.753  23.981  24.365  1.00  0.00    +0.000 H 
BRANCH    9    8
ATOM    101  H10 UNL A   1      34.838  24.866  26.542  1.00  0.00    +0.000 H 
ATOM    102  H11 UNL A   1      33.723  24.125  25.353  1.00  0.00    +0.000 H 
ATOM      8  C6  UNL A   1      34.512  23.968  26.059  1.00  0.00    +0.000 C 
BRANCH    8    7
ATOM     99  H8  UNL A   1      34.420  22.079  27.038  1.00  0.00    +0.000 H 
ATOM    100  H9  UNL A   1      34.131  23.493  28.081  1.00  0.00    +0.000 H 
ATOM      7  C5  UNL A   1      33.942  23.031  27.134  1.00  0.00    +0.000 C 
BRANCH    7    6
ATOM     97  H6  UNL A   1      32.188  21.835  27.372  1.00  0.00    +0.000 H 
ATOM     98  H7  UNL A   1      31.941  23.551  27.651  1.00  0.00    +0.000 H 
ATOM      6  C4  UNL A   1      32.429  22.823  27.037  1.00  0.00    +0.000 C 
BRANCH    6    5
ATOM      5  N1  UNL A   1      31.976  22.986  25.673  1.00  0.00    +0.000 N 
ATOM     96  H5  UNL A   1      31.702  23.899  25.428  1.00  0.00    +0.000 H 
BRANCH    5    3
ATOM      3  C3  UNL A   1      31.875  22.061  24.673  1.00  0.00    +0.000 C 
ATOM      4  O1  UNL A   1      32.083  20.886  24.981  1.00  0.00    +0.000 O 
BRANCH    3    2
ATOM      2  C2  UNL A   1      31.595  22.522  23.238  1.00  0.00    +0.000 C 
ATOM     95  H4  UNL A   1      30.547  22.373  23.077  1.00  0.00    +0.000 H 
BRANCH    2    1
ATOM      1  C1  UNL A   1      32.306  21.676  22.175  1.00  0.00    +0.000 C 
ATOM     92  H1  UNL A   1      33.364  21.817  22.257  1.00  0.00    +0.000 H 
ATOM     93  H2  UNL A   1      31.980  21.979  21.201  1.00  0.00    +0.000 H 
ATOM     94  H3  UNL A   1      32.071  20.644  22.324  1.00  0.00    +0.000 H 
ENDBRANCH    2    1
BRANCH    2   78
ATOM    137  H46 UNL A   1      30.452  27.034  23.119  1.00  0.00    +0.000 H 
ATOM     78  C55 UNL A   1      31.900  24.003  23.065  1.00  0.00    +0.000 C 
ATOM     79  C56 UNL A   1      33.211  24.418  22.796  1.00  0.00    +0.000 C 
ATOM     80  C57 UNL A   1      33.519  25.777  22.699  1.00  0.00    +0.000 C 
ATOM     81  C58 UNL A   1      32.532  26.751  22.893  1.00  0.00    +0.000 C 
ATOM     89  C65 UNL A   1      31.207  26.333  23.058  1.00  0.00    +0.000 C 
ATOM     90  C66 UNL A   1      30.902  24.979  23.141  1.00  0.00    +0.000 C 
ATOM     91  F16 UNL A   1      29.624  24.631  23.340  1.00  0.00    +0.000 F 
ATOM    124  H33 UNL A   1      33.955  23.715  22.668  1.00  0.00    +0.000 H 
ATOM    125  H34 UNL A   1      34.485  26.067  22.482  1.00  0.00    +0.000 H 
BRANCH   81   82
ATOM     82  C59 UNL A   1      32.875  28.217  22.950  1.00  0.00    +0.000 C 
ATOM    126  H35 UNL A   1      32.060  28.754  22.512  1.00  0.00    +0.000 H 
ATOM    127  H36 UNL A   1      33.808  28.299  22.434  1.00  0.00    +0.000 H 
BRANCH   82   83
ATOM    129  H38 UNL A   1      34.634  28.507  25.857  1.00  0.00    +0.000 H 
ATOM    130  H39 UNL A   1      34.427  27.158  24.794  1.00  0.00    +0.000 H 
ATOM    131  H40 UNL A   1      33.183  27.521  27.299  1.00  0.00    +0.000 H 
ATOM    132  H41 UNL A   1      32.789  26.286  26.156  1.00  0.00    +0.000 H 
ATOM    133  H42 UNL A   1      31.083  28.339  26.920  1.00  0.00    +0.000 H 
ATOM    134  H43 UNL A   1      30.864  27.410  25.495  1.00  0.00    +0.000 H 
ATOM    135  H44 UNL A   1      32.175  30.102  25.803  1.00  0.00    +0.000 H 
ATOM     83  C60 UNL A   1      33.140  28.834  24.344  1.00  0.00    +0.000 C 
ATOM     84  C61 UNL A   1      33.909  27.932  25.318  1.00  0.00    +0.000 C 
ATOM     85  C62 UNL A   1      32.880  27.343  26.288  1.00  0.00    +0.000 C 
ATOM     86  C63 UNL A   1      31.556  28.046  26.006  1.00  0.00    +0.000 C 
ATOM     87  C64 UNL A   1      31.931  29.269  25.178  1.00  0.00    +0.000 C 
ATOM    128  H37 UNL A   1      33.697  29.683  24.007  1.00  0.00    +0.000 H 
BRANCH   87   88
ATOM    136  H45 UNL A   1      31.133  30.613  23.991  1.00  0.00    +0.000 H 
ATOM     88  O3  UNL A   1      30.860  29.782  24.412  1.00  0.00    +0.000 O 
ENDBRANCH   87   88
ENDBRANCH   82   83
ENDBRANCH   81   82
ENDBRANCH    2   78
ENDBRANCH    3    2
ENDBRANCH    5    3
ENDBRANCH    6    5
ENDBRANCH    7    6
ENDBRANCH    8    7
ENDBRANCH    9    8
ENDBRANCH   10    9
ENDBRANCH   11   10
ENDBRANCH   12   11
ENDBRANCH   13   12
ENDBRANCH   15   13
ENDBRANCH   19   18
BRANCH   23   24
ATOM     33  C24 UNL A   1      48.113  27.028  26.520  1.00  0.00    +0.000 C 
ATOM     34  F5  UNL A   1      48.039  26.904  27.854  1.00  0.00    +0.000 F 
ATOM     24  C19 UNL A   1      47.063  27.624  25.806  1.00  0.00    +0.000 C 
ATOM     25  C20 UNL A   1      47.195  27.731  24.413  1.00  0.00    +0.000 C 
ATOM     26  F1  UNL A   1      46.215  28.282  23.681  1.00  0.00    +0.000 F 
ATOM     27  C21 UNL A   1      48.319  27.230  23.759  1.00  0.00    +0.000 C 
ATOM     28  F2  UNL A   1      48.398  27.295  22.422  1.00  0.00    +0.000 F 
ATOM     29  C22 UNL A   1      49.345  26.648  24.486  1.00  0.00    +0.000 C 
ATOM     30  F3  UNL A   1      50.427  26.168  23.857  1.00  0.00    +0.000 F 
ATOM     31  C23 UNL A   1      49.248  26.554  25.867  1.00  0.00    +0.000 C 
ATOM     32  F4  UNL A   1      50.245  26.003  26.572  1.00  0.00    +0.000 F 
ENDBRANCH   23   24
BRANCH   40   41
ATOM     41  C30 UNL A   1      45.030  33.566  29.355  1.00  0.00    +0.000 C 
ATOM     42  C31 UNL A   1      45.805  33.783  30.503  1.00  0.00    +0.000 C 
ATOM     43  F6  UNL A   1      46.025  32.780  31.367  1.00  0.00    +0.000 F 
ATOM     44  C32 UNL A   1      46.323  35.043  30.789  1.00  0.00    +0.000 C 
ATOM     45  F7  UNL A   1      47.020  35.238  31.917  1.00  0.00    +0.000 F 
ATOM     46  C33 UNL A   1      46.105  36.100  29.918  1.00  0.00    +0.000 C 
ATOM     47  F8  UNL A   1      46.608  37.311  30.193  1.00  0.00    +0.000 F 
ATOM     48  C34 UNL A   1      45.359  35.904  28.766  1.00  0.00    +0.000 C 
ATOM     49  F9  UNL A   1      45.157  36.920  27.916  1.00  0.00    +0.000 F 
ATOM     50  C35 UNL A   1      44.815  34.652  28.492  1.00  0.00    +0.000 C 
ATOM     51  F10 UNL A   1      44.086  34.496  27.377  1.00  0.00    +0.000 F 
ENDBRANCH   40   41
BRANCH   55   56
ATOM     65  C44 UNL A   1      38.795  30.373  32.159  1.00  0.00    +0.000 C 
ATOM     66  F15 UNL A   1      39.779  29.773  32.845  1.00  0.00    +0.000 F 
ATOM     56  C39 UNL A   1      38.914  30.558  30.775  1.00  0.00    +0.000 C 
ATOM     57  C40 UNL A   1      37.855  31.187  30.105  1.00  0.00    +0.000 C 
ATOM     58  F11 UNL A   1      37.934  31.405  28.784  1.00  0.00    +0.000 F 
ATOM     59  C41 UNL A   1      36.729  31.629  30.795  1.00  0.00    +0.000 C 
ATOM     60  F12 UNL A   1      35.750  32.265  30.137  1.00  0.00    +0.000 F 
ATOM     61  C42 UNL A   1      36.627  31.426  32.163  1.00  0.00    +0.000 C 
ATOM     62  F13 UNL A   1      35.543  31.849  32.827  1.00  0.00    +0.000 F 
ATOM     63  C43 UNL A   1      37.656  30.792  32.844  1.00  0.00    +0.000 C 
ATOM     64  F14 UNL A   1      37.556  30.583  34.164  1.00  0.00    +0.000 F 
ENDBRANCH   55   56
TORSDOF 20
ENDMDL
MODEL 10
REMARK VINA RESULT:     -11.0     42.961     46.365
ROOT
ATOM     19  C15 UNL A   1      13.935  54.108   5.121  1.00  0.00    +0.000 C 
ATOM     20  C16 UNL A   1      13.510  52.669   5.220  1.00  0.00    +0.000 C 
ATOM     21  N3  UNL A   1      13.858  51.648   4.478  1.00  0.00    +0.000 N 
ATOM     22  C17 UNL A   1      13.220  50.546   5.029  1.00  0.00    +0.000 C 
ATOM     23  C18 UNL A   1      13.212  49.265   4.588  1.00  0.00    +0.000 C 
ATOM     35  C25 UNL A   1      13.898  48.811   3.407  1.00  0.00    +0.000 C 
ATOM     36  C26 UNL A   1      13.897  47.551   2.836  1.00  0.00    +0.000 C 
ATOM     37  C27 UNL A   1      14.741  47.574   1.720  1.00  0.00    +0.000 C 
ATOM     38  C28 UNL A   1      15.231  48.861   1.569  1.00  0.00    +0.000 C 
ATOM     39  N4  UNL A   1      14.710  49.608   2.613  1.00  0.00    +0.000 N 
ATOM     40  C29 UNL A   1      16.112  49.372   0.549  1.00  0.00    +0.000 C 
ATOM     52  C36 UNL A   1      16.545  50.653   0.467  1.00  0.00    +0.000 C 
ATOM     53  N5  UNL A   1      16.254  51.728   1.295  1.00  0.00    +0.000 N 
ATOM     54  C37 UNL A   1      16.919  52.749   0.810  1.00  0.00    +0.000 C 
ATOM     55  C38 UNL A   1      16.950  54.177   1.283  1.00  0.00    +0.000 C 
ATOM     67  C45 UNL A   1      16.215  54.530   2.353  1.00  0.00    +0.000 C 
ATOM     68  C46 UNL A   1      16.132  55.874   2.919  1.00  0.00    +0.000 C 
ATOM     69  C47 UNL A   1      15.318  55.849   3.988  1.00  0.00    +0.000 C 
ATOM     70  C48 UNL A   1      14.798  54.492   4.162  1.00  0.00    +0.000 C 
ATOM     71  N6  UNL A   1      15.394  53.776   3.155  1.00  0.00    +0.000 N 
ATOM     72  C49 UNL A   1      17.737  52.425  -0.368  1.00  0.00    +0.000 C 
ATOM     73  C50 UNL A   1      17.440  51.148  -0.559  1.00  0.00    +0.000 C 
ATOM     74  C51 UNL A   1      12.503  51.011   6.197  1.00  0.00    +0.000 C 
ATOM     75  C52 UNL A   1      12.592  52.327   6.319  1.00  0.00    +0.000 C 
ATOM    112  H21 UNL A   1      13.365  46.734   3.176  1.00  0.00    +0.000 H 
ATOM    113  H22 UNL A   1      14.960  46.768   1.114  1.00  0.00    +0.000 H 
ATOM    114  H23 UNL A   1      14.889  50.563   2.767  1.00  0.00    +0.000 H 
ATOM    115  H24 UNL A   1      16.619  56.707   2.556  1.00  0.00    +0.000 H 
ATOM    116  H25 UNL A   1      15.095  56.658   4.589  1.00  0.00    +0.000 H 
ATOM    117  H26 UNL A   1      15.248  52.811   3.020  1.00  0.00    +0.000 H 
ATOM    118  H27 UNL A   1      18.375  53.034  -0.905  1.00  0.00    +0.000 H 
ATOM    119  H28 UNL A   1      17.801  50.578  -1.340  1.00  0.00    +0.000 H 
ATOM    120  H29 UNL A   1      11.991  50.397   6.850  1.00  0.00    +0.000 H 
ATOM    121  H30 UNL A   1      12.136  52.949   7.003  1.00  0.00    +0.000 H 
ENDROOT
BRANCH   19   18
ATOM     76  C53 UNL A   1      14.128  55.249   7.332  1.00  0.00    +0.000 C 
ATOM     77  C54 UNL A   1      13.659  56.141   8.293  1.00  0.00    +0.000 C 
ATOM    110  H19 UNL A   1      11.050  57.403   6.599  1.00  0.00    +0.000 H 
ATOM     15  C11 UNL A   1      12.566  56.966   8.005  1.00  0.00    +0.000 C 
ATOM     16  C12 UNL A   1      11.875  56.817   6.798  1.00  0.00    +0.000 C 
ATOM     17  C13 UNL A   1      12.306  55.874   5.864  1.00  0.00    +0.000 C 
ATOM    111  H20 UNL A   1      11.781  55.745   4.984  1.00  0.00    +0.000 H 
ATOM     18  C14 UNL A   1      13.450  55.097   6.114  1.00  0.00    +0.000 C 
ATOM    122  H31 UNL A   1      14.980  54.697   7.517  1.00  0.00    +0.000 H 
ATOM    123  H32 UNL A   1      14.116  56.194   9.216  1.00  0.00    +0.000 H 
BRANCH   15   13
ATOM     13  C10 UNL A   1      12.098  57.981   8.972  1.00  0.00    +0.000 C 
ATOM     14  O2  UNL A   1      12.420  59.156   8.826  1.00  0.00    +0.000 O 
BRANCH   13   12
ATOM     12  N2  UNL A   1      11.317  57.609  10.037  1.00  0.00    +0.000 N 
ATOM    109  H18 UNL A   1      11.434  58.145  10.854  1.00  0.00    +0.000 H 
BRANCH   12   11
ATOM     11  C9  UNL A   1      10.342  56.535  10.129  1.00  0.00    +0.000 C 
ATOM    108  H17 UNL A   1       9.983  56.331   9.141  1.00  0.00    +0.000 H 
ATOM    107  H16 UNL A   1       9.547  56.845  10.775  1.00  0.00    +0.000 H 
BRANCH   11   10
ATOM    105  H14 UNL A   1      11.972  55.448  10.937  1.00  0.00    +0.000 H 
ATOM     10  C8  UNL A   1      10.952  55.252  10.680  1.00  0.00    +0.000 C 
ATOM    106  H15 UNL A   1      10.354  54.969  11.522  1.00  0.00    +0.000 H 
BRANCH   10    9
ATOM      9  C7  UNL A   1      10.924  54.067   9.712  1.00  0.00    +0.000 C 
ATOM    103  H12 UNL A   1      10.677  54.438   8.739  1.00  0.00    +0.000 H 
ATOM    104  H13 UNL A   1      11.895  53.618   9.760  1.00  0.00    +0.000 H 
BRANCH    9    8
ATOM    101  H10 UNL A   1       9.047  53.427  10.470  1.00  0.00    +0.000 H 
ATOM    102  H11 UNL A   1       9.743  52.420   9.164  1.00  0.00    +0.000 H 
ATOM      8  C6  UNL A   1       9.923  52.963  10.069  1.00  0.00    +0.000 C 
BRANCH    8    7
ATOM     99  H8  UNL A   1      10.171  50.956  10.739  1.00  0.00    +0.000 H 
ATOM    100  H9  UNL A   1      11.484  52.076  11.180  1.00  0.00    +0.000 H 
ATOM      7  C5  UNL A   1      10.427  51.934  11.091  1.00  0.00    +0.000 C 
BRANCH    7    6
ATOM     97  H6  UNL A   1       8.851  52.520  12.409  1.00  0.00    +0.000 H 
ATOM     98  H7  UNL A   1       9.801  51.156  12.974  1.00  0.00    +0.000 H 
ATOM      6  C4  UNL A   1       9.836  52.111  12.492  1.00  0.00    +0.000 C 
BRANCH    6    5
ATOM      5  N1  UNL A   1      10.656  53.001  13.284  1.00  0.00    +0.000 N 
ATOM     96  H5  UNL A   1      10.428  53.957  13.213  1.00  0.00    +0.000 H 
BRANCH    5    3
ATOM      3  C3  UNL A   1      11.698  52.714  14.118  1.00  0.00    +0.000 C 
ATOM      4  O1  UNL A   1      11.417  52.202  15.203  1.00  0.00    +0.000 O 
BRANCH    3    2
ATOM      2  C2  UNL A   1      13.125  53.104  13.712  1.00  0.00    +0.000 C 
ATOM     95  H4  UNL A   1      13.746  52.876  14.553  1.00  0.00    +0.000 H 
BRANCH    2    1
ATOM      1  C1  UNL A   1      13.298  54.607  13.460  1.00  0.00    +0.000 C 
ATOM     92  H1  UNL A   1      12.409  55.123  13.758  1.00  0.00    +0.000 H 
ATOM     93  H2  UNL A   1      13.477  54.776  12.419  1.00  0.00    +0.000 H 
ATOM     94  H3  UNL A   1      14.129  54.971  14.028  1.00  0.00    +0.000 H 
ENDBRANCH    2    1
BRANCH    2   78
ATOM    137  H46 UNL A   1      14.031  49.116  11.488  1.00  0.00    +0.000 H 
ATOM     78  C55 UNL A   1      13.605  52.283  12.524  1.00  0.00    +0.000 C 
ATOM     79  C56 UNL A   1      14.048  52.930  11.363  1.00  0.00    +0.000 C 
ATOM     80  C57 UNL A   1      14.430  52.190  10.241  1.00  0.00    +0.000 C 
ATOM     81  C58 UNL A   1      14.355  50.792  10.245  1.00  0.00    +0.000 C 
ATOM     89  C65 UNL A   1      14.012  50.146  11.438  1.00  0.00    +0.000 C 
ATOM     90  C66 UNL A   1      13.645  50.887  12.557  1.00  0.00    +0.000 C 
ATOM     91  F16 UNL A   1      13.286  50.221  13.663  1.00  0.00    +0.000 F 
ATOM    124  H33 UNL A   1      14.093  53.960  11.335  1.00  0.00    +0.000 H 
ATOM    125  H34 UNL A   1      14.772  52.679   9.399  1.00  0.00    +0.000 H 
BRANCH   81   82
ATOM     82  C59 UNL A   1      14.610  49.988   8.997  1.00  0.00    +0.000 C 
ATOM    126  H35 UNL A   1      14.503  50.649   8.162  1.00  0.00    +0.000 H 
ATOM    127  H36 UNL A   1      13.904  49.186   9.040  1.00  0.00    +0.000 H 
BRANCH   82   83
ATOM    129  H38 UNL A   1      17.300  48.313  10.256  1.00  0.00    +0.000 H 
ATOM    130  H39 UNL A   1      16.217  49.433  11.008  1.00  0.00    +0.000 H 
ATOM    131  H40 UNL A   1      18.862  49.961  10.185  1.00  0.00    +0.000 H 
ATOM    132  H41 UNL A   1      17.725  51.147  10.720  1.00  0.00    +0.000 H 
ATOM    133  H42 UNL A   1      18.764  50.993   8.149  1.00  0.00    +0.000 H 
ATOM    134  H43 UNL A   1      17.339  51.863   8.541  1.00  0.00    +0.000 H 
ATOM    135  H44 UNL A   1      17.598  49.073   7.441  1.00  0.00    +0.000 H 
ATOM     83  C60 UNL A   1      15.987  49.293   8.864  1.00  0.00    +0.000 C 
ATOM     84  C61 UNL A   1      16.828  49.268  10.147  1.00  0.00    +0.000 C 
ATOM     85  C62 UNL A   1      17.888  50.365  10.009  1.00  0.00    +0.000 C 
ATOM     86  C63 UNL A   1      17.791  50.894   8.581  1.00  0.00    +0.000 C 
ATOM     87  C64 UNL A   1      16.973  49.849   7.831  1.00  0.00    +0.000 C 
ATOM    128  H37 UNL A   1      15.620  48.334   8.564  1.00  0.00    +0.000 H 
BRANCH   87   88
ATOM    136  H45 UNL A   1      16.741  49.909   5.883  1.00  0.00    +0.000 H 
ATOM     88  O3  UNL A   1      16.358  50.346   6.660  1.00  0.00    +0.000 O 
ENDBRANCH   87   88
ENDBRANCH   82   83
ENDBRANCH   81   82
ENDBRANCH    2   78
ENDBRANCH    3    2
ENDBRANCH    5    3
ENDBRANCH    6    5
ENDBRANCH    7    6
ENDBRANCH    8    7
ENDBRANCH    9    8
ENDBRANCH   10    9
ENDBRANCH   11   10
ENDBRANCH   12   11
ENDBRANCH   13   12
ENDBRANCH   15   13
ENDBRANCH   19   18
BRANCH   23   24
ATOM     33  C24 UNL A   1      13.059  47.527   6.410  1.00  0.00    +0.000 C 
ATOM     34  F5  UNL A   1      14.356  47.726   6.690  1.00  0.00    +0.000 F 
ATOM     24  C19 UNL A   1      12.435  48.261   5.390  1.00  0.00    +0.000 C 
ATOM     25  C20 UNL A   1      11.077  48.009   5.137  1.00  0.00    +0.000 C 
ATOM     26  F1  UNL A   1      10.430  48.691   4.181  1.00  0.00    +0.000 F 
ATOM     27  C21 UNL A   1      10.367  47.084   5.898  1.00  0.00    +0.000 C 
ATOM     28  F2  UNL A   1       9.058  46.899   5.674  1.00  0.00    +0.000 F 
ATOM     29  C22 UNL A   1      11.005  46.367   6.898  1.00  0.00    +0.000 C 
ATOM     30  F3  UNL A   1      10.321  45.476   7.628  1.00  0.00    +0.000 F 
ATOM     31  C23 UNL A   1      12.352  46.582   7.149  1.00  0.00    +0.000 C 
ATOM     32  F4  UNL A   1      12.974  45.881   8.107  1.00  0.00    +0.000 F 
ENDBRANCH   23   24
BRANCH   40   41
ATOM     41  C30 UNL A   1      16.564  48.425  -0.523  1.00  0.00    +0.000 C 
ATOM     42  C31 UNL A   1      15.748  48.108  -1.618  1.00  0.00    +0.000 C 
ATOM     43  F6  UNL A   1      14.511  48.619  -1.708  1.00  0.00    +0.000 F 
ATOM     44  C32 UNL A   1      16.186  47.230  -2.606  1.00  0.00    +0.000 C 
ATOM     45  F7  UNL A   1      15.371  46.903  -3.618  1.00  0.00    +0.000 F 
ATOM     46  C33 UNL A   1      17.457  46.679  -2.535  1.00  0.00    +0.000 C 
ATOM     47  F8  UNL A   1      17.878  45.838  -3.489  1.00  0.00    +0.000 F 
ATOM     48  C34 UNL A   1      18.288  46.995  -1.471  1.00  0.00    +0.000 C 
ATOM     49  F9  UNL A   1      19.522  46.474  -1.407  1.00  0.00    +0.000 F 
ATOM     50  C35 UNL A   1      17.843  47.850  -0.467  1.00  0.00    +0.000 C 
ATOM     51  F10 UNL A   1      18.664  48.126   0.557  1.00  0.00    +0.000 F 
ENDBRANCH   40   41
BRANCH   55   56
ATOM     65  C44 UNL A   1      17.280  55.778  -0.634  1.00  0.00    +0.000 C 
ATOM     66  F15 UNL A   1      16.100  55.403  -1.149  1.00  0.00    +0.000 F 
ATOM     56  C39 UNL A   1      17.743  55.201   0.556  1.00  0.00    +0.000 C 
ATOM     57  C40 UNL A   1      18.985  55.625   1.050  1.00  0.00    +0.000 C 
ATOM     58  F11 UNL A   1      19.459  55.117   2.197  1.00  0.00    +0.000 F 
ATOM     59  C41 UNL A   1      19.726  56.601   0.388  1.00  0.00    +0.000 C 
ATOM     60  F12 UNL A   1      20.890  57.020   0.903  1.00  0.00    +0.000 F 
ATOM     61  C42 UNL A   1      19.253  57.152  -0.794  1.00  0.00    +0.000 C 
ATOM     62  F13 UNL A   1      19.967  58.089  -1.432  1.00  0.00    +0.000 F 
ATOM     63  C43 UNL A   1      18.034  56.735  -1.309  1.00  0.00    +0.000 C 
ATOM     64  F14 UNL A   1      17.580  57.256  -2.457  1.00  0.00    +0.000 F 
ENDBRANCH   55   56
TORSDOF 20
ENDMDL
