MODEL 1
REMARK VINA RESULT:     -11.4      0.000      0.000
ROOT
ATOM    129  H34 UNL A   1      38.031  28.963  27.430  1.00  0.00    +0.000 H 
ATOM    130  H35 UNL A   1      40.432  29.055  30.822  1.00  0.00    +0.000 H 
ATOM    131  H36 UNL A   1      44.643  26.614  29.576  1.00  0.00    +0.000 H 
ATOM    132  H37 UNL A   1      45.457  27.083  31.957  1.00  0.00    +0.000 H 
ATOM    133  H38 UNL A   1      37.092  32.322  33.902  1.00  0.00    +0.000 H 
ATOM    134  H39 UNL A   1      36.145  31.652  31.617  1.00  0.00    +0.000 H 
ATOM     37  C29 UNL A   1      37.938  30.077  30.048  1.00  0.00    +0.000 C 
ATOM     38  C30 UNL A   1      38.139  30.587  31.445  1.00  0.00    +0.000 C 
ATOM     39  N3  UNL A   1      39.164  30.417  32.243  1.00  0.00    +0.000 N 
ATOM     40  C31 UNL A   1      38.863  31.108  33.408  1.00  0.00    +0.000 C 
ATOM     41  C32 UNL A   1      39.604  31.215  34.537  1.00  0.00    +0.000 C 
ATOM     53  C39 UNL A   1      40.884  30.585  34.732  1.00  0.00    +0.000 C 
ATOM     54  C40 UNL A   1      41.678  30.580  35.867  1.00  0.00    +0.000 C 
ATOM     55  C41 UNL A   1      42.858  29.887  35.574  1.00  0.00    +0.000 C 
ATOM     56  C42 UNL A   1      42.781  29.423  34.272  1.00  0.00    +0.000 C 
ATOM     57  N4  UNL A   1      41.563  29.855  33.768  1.00  0.00    +0.000 N 
ATOM     58  C43 UNL A   1      43.748  28.649  33.538  1.00  0.00    +0.000 C 
ATOM     70  C50 UNL A   1      43.575  28.177  32.280  1.00  0.00    +0.000 C 
ATOM     71  N5  UNL A   1      42.489  28.335  31.432  1.00  0.00    +0.000 N 
ATOM     72  C51 UNL A   1      42.813  27.727  30.318  1.00  0.00    +0.000 C 
ATOM     73  C52 UNL A   1      42.012  27.575  29.056  1.00  0.00    +0.000 C 
ATOM     85  C59 UNL A   1      40.789  28.129  28.991  1.00  0.00    +0.000 C 
ATOM     86  C60 UNL A   1      39.905  28.073  27.833  1.00  0.00    +0.000 C 
ATOM     87  C61 UNL A   1      38.808  28.800  28.089  1.00  0.00    +0.000 C 
ATOM     88  C62 UNL A   1      38.886  29.326  29.455  1.00  0.00    +0.000 C 
ATOM     89  N6  UNL A   1      40.094  28.870  29.916  1.00  0.00    +0.000 N 
ATOM     90  C63 UNL A   1      44.150  27.120  30.329  1.00  0.00    +0.000 C 
ATOM     91  C64 UNL A   1      44.556  27.391  31.560  1.00  0.00    +0.000 C 
ATOM     92  C65 UNL A   1      37.563  31.718  33.211  1.00  0.00    +0.000 C 
ATOM     93  C66 UNL A   1      37.058  31.398  32.026  1.00  0.00    +0.000 C 
ATOM    125  H30 UNL A   1      41.440  31.012  36.773  1.00  0.00    +0.000 H 
ATOM    126  H31 UNL A   1      43.652  29.747  36.219  1.00  0.00    +0.000 H 
ATOM    127  H32 UNL A   1      41.229  29.670  32.860  1.00  0.00    +0.000 H 
ATOM    128  H33 UNL A   1      40.093  27.558  26.959  1.00  0.00    +0.000 H 
ENDROOT
BRANCH   37   36
ATOM     33  C25 UNL A   1      34.441  30.807  27.684  1.00  0.00    +0.000 C 
ATOM     34  C26 UNL A   1      34.699  29.532  28.194  1.00  0.00    +0.000 C 
ATOM     35  C27 UNL A   1      35.786  29.328  29.038  1.00  0.00    +0.000 C 
ATOM     36  C28 UNL A   1      36.698  30.368  29.286  1.00  0.00    +0.000 C 
ATOM    135  H40 UNL A   1      37.144  32.395  28.876  1.00  0.00    +0.000 H 
ATOM    136  H41 UNL A   1      35.157  32.790  27.535  1.00  0.00    +0.000 H 
ATOM    123  H28 UNL A   1      34.084  28.742  27.944  1.00  0.00    +0.000 H 
ATOM    124  H29 UNL A   1      35.923  28.409  29.484  1.00  0.00    +0.000 H 
ATOM     94  C67 UNL A   1      36.471  31.630  28.717  1.00  0.00    +0.000 C 
ATOM     95  C68 UNL A   1      35.335  31.853  27.932  1.00  0.00    +0.000 C 
BRANCH   33    2
ATOM      1  O1  UNL A   1      32.618  32.105  26.985  1.00  0.00    +0.000 O 
ATOM      2  C1  UNL A   1      33.246  31.064  26.846  1.00  0.00    +0.000 C 
BRANCH    2    3
ATOM      3  N1  UNL A   1      32.840  30.126  25.925  1.00  0.00    +0.000 N 
ATOM     96  H1  UNL A   1      33.402  30.051  25.121  1.00  0.00    +0.000 H 
BRANCH    3    4
ATOM     97  H2  UNL A   1      30.925  29.695  26.554  1.00  0.00    +0.000 H 
ATOM     98  H3  UNL A   1      32.023  28.313  26.417  1.00  0.00    +0.000 H 
ATOM      4  C2  UNL A   1      31.697  29.232  25.976  1.00  0.00    +0.000 C 
BRANCH    4    5
ATOM     99  H4  UNL A   1      31.953  28.965  23.895  1.00  0.00    +0.000 H 
ATOM    100  H5  UNL A   1      30.371  29.625  24.411  1.00  0.00    +0.000 H 
ATOM      5  C3  UNL A   1      31.146  28.911  24.595  1.00  0.00    +0.000 C 
BRANCH    5    6
ATOM    102  H7  UNL A   1      29.441  27.707  24.534  1.00  0.00    +0.000 H 
ATOM    101  H6  UNL A   1      30.807  27.116  23.526  1.00  0.00    +0.000 H 
ATOM      6  C4  UNL A   1      30.494  27.534  24.460  1.00  0.00    +0.000 C 
BRANCH    6    7
ATOM    103  H8  UNL A   1      30.169  26.715  26.386  1.00  0.00    +0.000 H 
ATOM      7  C5  UNL A   1      30.823  26.521  25.561  1.00  0.00    +0.000 C 
ATOM    104  H9  UNL A   1      31.862  26.663  25.773  1.00  0.00    +0.000 H 
BRANCH    7    8
ATOM    105  H10 UNL A   1      31.640  24.692  24.862  1.00  0.00    +0.000 H 
ATOM    106  H11 UNL A   1      29.918  24.992  24.452  1.00  0.00    +0.000 H 
ATOM      8  C6  UNL A   1      30.684  25.037  25.197  1.00  0.00    +0.000 C 
BRANCH    8    9
ATOM      9  C7  UNL A   1      30.221  24.114  26.323  1.00  0.00    +0.000 C 
ATOM    107  H12 UNL A   1      29.520  23.413  25.923  1.00  0.00    +0.000 H 
ATOM    108  H13 UNL A   1      29.782  24.731  27.080  1.00  0.00    +0.000 H 
BRANCH    9   10
ATOM     10  N2  UNL A   1      31.306  23.385  26.936  1.00  0.00    +0.000 N 
ATOM    109  H14 UNL A   1      31.332  23.402  27.920  1.00  0.00    +0.000 H 
BRANCH   10   11
ATOM     11  C8  UNL A   1      32.300  22.673  26.330  1.00  0.00    +0.000 C 
ATOM     12  O2  UNL A   1      31.967  21.701  25.650  1.00  0.00    +0.000 O 
BRANCH   11   13
ATOM     13  C9  UNL A   1      33.772  23.094  26.541  1.00  0.00    +0.000 C 
ATOM     14  C10 UNL A   1      34.744  22.165  25.823  1.00  0.00    +0.000 C 
ATOM    110  H15 UNL A   1      33.941  23.030  27.596  1.00  0.00    +0.000 H 
ATOM    111  H16 UNL A   1      34.211  21.502  25.175  1.00  0.00    +0.000 H 
ATOM     15  C11 UNL A   1      35.678  23.063  25.010  1.00  0.00    +0.000 C 
ATOM    112  H17 UNL A   1      35.292  21.564  26.518  1.00  0.00    +0.000 H 
ATOM    118  H23 UNL A   1      35.714  25.143  25.015  1.00  0.00    +0.000 H 
ATOM     24  C18 UNL A   1      34.924  24.422  24.985  1.00  0.00    +0.000 C 
ATOM     32  O4  UNL A   1      34.013  24.431  26.101  1.00  0.00    +0.000 O 
BRANCH   15   16
ATOM    113  H18 UNL A   1      36.357  21.780  23.649  1.00  0.00    +0.000 H 
ATOM     16  O3  UNL A   1      35.745  22.532  23.669  1.00  0.00    +0.000 O 
ENDBRANCH   15   16
BRANCH   15   17
ATOM     17  C12 UNL A   1      37.111  22.934  25.567  1.00  0.00    +0.000 C 
ATOM     18  C13 UNL A   1      37.664  24.134  26.102  1.00  0.00    +0.000 C 
ATOM     19  C14 UNL A   1      38.930  24.193  26.688  1.00  0.00    +0.000 C 
ATOM    114  H19 UNL A   1      37.103  24.999  26.053  1.00  0.00    +0.000 H 
ATOM     21  C16 UNL A   1      39.207  21.860  26.235  1.00  0.00    +0.000 C 
ATOM     22  C17 UNL A   1      37.949  21.804  25.603  1.00  0.00    +0.000 C 
ATOM     23 Cl1  UNL A   1      37.622  20.292  24.837  1.00  0.00    +0.000 Cl
ATOM    115  H20 UNL A   1      39.292  25.088  27.053  1.00  0.00    +0.000 H 
ATOM     20  C15 UNL A   1      39.694  23.045  26.779  1.00  0.00    +0.000 C 
ATOM    117  H22 UNL A   1      39.780  21.004  26.295  1.00  0.00    +0.000 H 
ATOM    116  H21 UNL A   1      40.616  23.065  27.244  1.00  0.00    +0.000 H 
ENDBRANCH   15   17
BRANCH   24   25
ATOM    122  H27 UNL A   1      32.785  27.509  22.192  1.00  0.00    +0.000 H 
ATOM    121  H26 UNL A   1      31.903  25.785  20.733  1.00  0.00    +0.000 H 
ATOM    119  H24 UNL A   1      33.911  22.870  22.986  1.00  0.00    +0.000 H 
ATOM    120  H25 UNL A   1      32.497  23.468  21.120  1.00  0.00    +0.000 H 
ATOM     25  C19 UNL A   1      34.141  24.830  23.737  1.00  0.00    +0.000 C 
ATOM     26  C20 UNL A   1      33.659  23.860  22.840  1.00  0.00    +0.000 C 
ATOM     27  C21 UNL A   1      32.849  24.204  21.753  1.00  0.00    +0.000 C 
ATOM     28  C22 UNL A   1      32.515  25.532  21.524  1.00  0.00    +0.000 C 
ATOM     29  C23 UNL A   1      33.013  26.519  22.370  1.00  0.00    +0.000 C 
ATOM     30  C24 UNL A   1      33.822  26.176  23.462  1.00  0.00    +0.000 C 
ATOM     31 Cl2  UNL A   1      34.405  27.497  24.420  1.00  0.00    +0.000 Cl
ENDBRANCH   24   25
ENDBRANCH   11   13
ENDBRANCH   10   11
ENDBRANCH    9   10
ENDBRANCH    8    9
ENDBRANCH    7    8
ENDBRANCH    6    7
ENDBRANCH    5    6
ENDBRANCH    4    5
ENDBRANCH    3    4
ENDBRANCH    2    3
ENDBRANCH   33    2
ENDBRANCH   37   36
BRANCH   41   42
ATOM     42  C33 UNL A   1      39.065  32.051  35.660  1.00  0.00    +0.000 C 
ATOM     43  C34 UNL A   1      38.289  31.493  36.686  1.00  0.00    +0.000 C 
ATOM     44  F1  UNL A   1      37.923  30.203  36.630  1.00  0.00    +0.000 F 
ATOM     45  C35 UNL A   1      37.877  32.262  37.771  1.00  0.00    +0.000 C 
ATOM     46  F2  UNL A   1      37.121  31.712  38.732  1.00  0.00    +0.000 F 
ATOM     47  C36 UNL A   1      38.250  33.595  37.863  1.00  0.00    +0.000 C 
ATOM     48  F3  UNL A   1      37.869  34.329  38.919  1.00  0.00    +0.000 F 
ATOM     49  C37 UNL A   1      39.019  34.167  36.861  1.00  0.00    +0.000 C 
ATOM     50  F4  UNL A   1      39.391  35.452  36.954  1.00  0.00    +0.000 F 
ATOM     51  C38 UNL A   1      39.414  33.406  35.764  1.00  0.00    +0.000 C 
ATOM     52  F5  UNL A   1      40.162  33.986  34.812  1.00  0.00    +0.000 F 
ENDBRANCH   41   42
BRANCH   58   59
ATOM     65  F8  UNL A   1      48.618  27.383  36.101  1.00  0.00    +0.000 F 
ATOM     66  C48 UNL A   1      46.371  26.839  35.614  1.00  0.00    +0.000 C 
ATOM     67  F9  UNL A   1      46.471  25.720  36.344  1.00  0.00    +0.000 F 
ATOM     68  C49 UNL A   1      45.176  27.143  34.968  1.00  0.00    +0.000 C 
ATOM     69  F10 UNL A   1      44.144  26.293  35.083  1.00  0.00    +0.000 F 
ATOM     59  C44 UNL A   1      45.044  28.317  34.214  1.00  0.00    +0.000 C 
ATOM     60  C45 UNL A   1      46.152  29.175  34.127  1.00  0.00    +0.000 C 
ATOM     61  F6  UNL A   1      46.079  30.300  33.400  1.00  0.00    +0.000 F 
ATOM     62  C46 UNL A   1      47.353  28.853  34.751  1.00  0.00    +0.000 C 
ATOM     63  F7  UNL A   1      48.414  29.661  34.614  1.00  0.00    +0.000 F 
ATOM     64  C47 UNL A   1      47.460  27.690  35.499  1.00  0.00    +0.000 C 
ENDBRANCH   58   59
BRANCH   73   74
ATOM     74  C53 UNL A   1      42.559  26.846  27.884  1.00  0.00    +0.000 C 
ATOM     75  C54 UNL A   1      42.410  25.459  27.761  1.00  0.00    +0.000 C 
ATOM     76  F11 UNL A   1      41.781  24.765  28.721  1.00  0.00    +0.000 F 
ATOM     77  C55 UNL A   1      42.943  24.773  26.670  1.00  0.00    +0.000 C 
ATOM     78  F12 UNL A   1      42.827  23.440  26.600  1.00  0.00    +0.000 F 
ATOM     79  C56 UNL A   1      43.605  25.466  25.668  1.00  0.00    +0.000 C 
ATOM     80  F13 UNL A   1      44.114  24.806  24.618  1.00  0.00    +0.000 F 
ATOM     81  C57 UNL A   1      43.747  26.842  25.759  1.00  0.00    +0.000 C 
ATOM     82  F14 UNL A   1      44.372  27.517  24.785  1.00  0.00    +0.000 F 
ATOM     83  C58 UNL A   1      43.243  27.523  26.863  1.00  0.00    +0.000 C 
ATOM     84  F15 UNL A   1      43.408  28.853  26.933  1.00  0.00    +0.000 F 
ENDBRANCH   73   74
TORSDOF 18
ENDMDL
MODEL 2
REMARK VINA RESULT:     -11.2     33.567     38.856
ROOT
ATOM    129  H34 UNL A   1       9.340   2.720  23.925  1.00  0.00    +0.000 H 
ATOM    130  H35 UNL A   1       9.528   5.609  20.942  1.00  0.00    +0.000 H 
ATOM    131  H36 UNL A   1       6.949   9.548  22.697  1.00  0.00    +0.000 H 
ATOM    132  H37 UNL A   1       7.503  10.721  20.490  1.00  0.00    +0.000 H 
ATOM    133  H38 UNL A   1      12.993   2.822  17.546  1.00  0.00    +0.000 H 
ATOM    134  H39 UNL A   1      12.245   1.530  19.628  1.00  0.00    +0.000 H 
ATOM     37  C29 UNL A   1      10.567   3.041  21.376  1.00  0.00    +0.000 C 
ATOM     38  C30 UNL A   1      11.132   3.459  20.050  1.00  0.00    +0.000 C 
ATOM     39  N3  UNL A   1      10.975   4.591  19.410  1.00  0.00    +0.000 N 
ATOM     40  C31 UNL A   1      11.722   4.480  18.246  1.00  0.00    +0.000 C 
ATOM     41  C32 UNL A   1      11.862   5.385  17.248  1.00  0.00    +0.000 C 
ATOM     53  C39 UNL A   1      11.215   6.671  17.219  1.00  0.00    +0.000 C 
ATOM     54  C40 UNL A   1      11.242   7.629  16.219  1.00  0.00    +0.000 C 
ATOM     55  C41 UNL A   1      10.514   8.740  16.654  1.00  0.00    +0.000 C 
ATOM     56  C42 UNL A   1       9.995   8.460  17.907  1.00  0.00    +0.000 C 
ATOM     57  N4  UNL A   1      10.430   7.186  18.240  1.00  0.00    +0.000 N 
ATOM     58  C43 UNL A   1       9.171   9.294  18.742  1.00  0.00    +0.000 C 
ATOM     70  C50 UNL A   1       8.649   8.925  19.937  1.00  0.00    +0.000 C 
ATOM     71  N5  UNL A   1       8.793   7.725  20.617  1.00  0.00    +0.000 N 
ATOM     72  C51 UNL A   1       8.131   7.868  21.739  1.00  0.00    +0.000 C 
ATOM     73  C52 UNL A   1       7.942   6.883  22.857  1.00  0.00    +0.000 C 
ATOM     85  C59 UNL A   1       8.517   5.671  22.762  1.00  0.00    +0.000 C 
ATOM     86  C60 UNL A   1       8.429   4.621  23.769  1.00  0.00    +0.000 C 
ATOM     87  C61 UNL A   1       9.189   3.586  23.384  1.00  0.00    +0.000 C 
ATOM     88  C62 UNL A   1       9.772   3.878  22.071  1.00  0.00    +0.000 C 
ATOM     89  N6  UNL A   1       9.311   5.135  21.777  1.00  0.00    +0.000 N 
ATOM     90  C63 UNL A   1       7.497   9.182  21.902  1.00  0.00    +0.000 C 
ATOM     91  C64 UNL A   1       7.813   9.775  20.760  1.00  0.00    +0.000 C 
ATOM     92  C65 UNL A   1      12.350   3.174  18.271  1.00  0.00    +0.000 C 
ATOM     93  C66 UNL A   1      11.990   2.490  19.351  1.00  0.00    +0.000 C 
ATOM    125  H30 UNL A   1      11.718   7.537  15.307  1.00  0.00    +0.000 H 
ATOM    126  H31 UNL A   1      10.385   9.621  16.130  1.00  0.00    +0.000 H 
ATOM    127  H32 UNL A   1      10.213   6.716  19.078  1.00  0.00    +0.000 H 
ATOM    128  H33 UNL A   1       7.874   4.667  24.638  1.00  0.00    +0.000 H 
ENDROOT
BRANCH   37   36
ATOM     33  C25 UNL A   1      11.539  -0.842  22.900  1.00  0.00    +0.000 C 
ATOM     34  C26 UNL A   1      12.412   0.232  23.087  1.00  0.00    +0.000 C 
ATOM     35  C27 UNL A   1      12.044   1.508  22.671  1.00  0.00    +0.000 C 
ATOM     36  C28 UNL A   1      10.851   1.704  21.955  1.00  0.00    +0.000 C 
ATOM    135  H40 UNL A   1       9.140   0.739  21.169  1.00  0.00    +0.000 H 
ATOM    136  H41 UNL A   1       9.710  -1.457  22.038  1.00  0.00    +0.000 H 
ATOM    123  H28 UNL A   1      13.331   0.080  23.533  1.00  0.00    +0.000 H 
ATOM    124  H29 UNL A   1      12.649   2.313  22.890  1.00  0.00    +0.000 H 
ATOM     94  C67 UNL A   1      10.009   0.610  21.711  1.00  0.00    +0.000 C 
ATOM     95  C68 UNL A   1      10.344  -0.658  22.198  1.00  0.00    +0.000 C 
BRANCH   33    2
ATOM      1  O1  UNL A   1      12.800  -2.819  22.895  1.00  0.00    +0.000 O 
ATOM      2  C1  UNL A   1      11.878  -2.195  23.403  1.00  0.00    +0.000 C 
BRANCH    2    3
ATOM      3  N1  UNL A   1      11.146  -2.748  24.428  1.00  0.00    +0.000 N 
ATOM     96  H1  UNL A   1      10.281  -3.137  24.169  1.00  0.00    +0.000 H 
BRANCH    3    4
ATOM     97  H2  UNL A   1      12.359  -3.430  25.948  1.00  0.00    +0.000 H 
ATOM     98  H3  UNL A   1      10.640  -3.280  26.340  1.00  0.00    +0.000 H 
ATOM      4  C2  UNL A   1      11.475  -2.837  25.840  1.00  0.00    +0.000 C 
BRANCH    4    5
ATOM     99  H4  UNL A   1      11.042  -1.359  27.287  1.00  0.00    +0.000 H 
ATOM    100  H5  UNL A   1      11.578  -0.757  25.689  1.00  0.00    +0.000 H 
ATOM      5  C3  UNL A   1      11.722  -1.475  26.469  1.00  0.00    +0.000 C 
BRANCH    5    6
ATOM    102  H7  UNL A   1      13.045  -0.514  27.767  1.00  0.00    +0.000 H 
ATOM    101  H6  UNL A   1      13.517  -2.192  27.331  1.00  0.00    +0.000 H 
ATOM      6  C4  UNL A   1      13.139  -1.249  26.996  1.00  0.00    +0.000 C 
BRANCH    6    7
ATOM    103  H8  UNL A   1      13.706  -0.729  25.022  1.00  0.00    +0.000 H 
ATOM      7  C5  UNL A   1      14.146  -0.670  25.996  1.00  0.00    +0.000 C 
ATOM    104  H9  UNL A   1      15.034  -1.253  26.122  1.00  0.00    +0.000 H 
BRANCH    7    8
ATOM    105  H10 UNL A   1      13.724   1.337  26.545  1.00  0.00    +0.000 H 
ATOM    106  H11 UNL A   1      14.986   1.113  25.287  1.00  0.00    +0.000 H 
ATOM      8  C6  UNL A   1      14.582   0.784  26.221  1.00  0.00    +0.000 C 
BRANCH    8    9
ATOM      9  C7  UNL A   1      15.691   0.996  27.249  1.00  0.00    +0.000 C 
ATOM    107  H12 UNL A   1      16.546   1.404  26.751  1.00  0.00    +0.000 H 
ATOM    108  H13 UNL A   1      15.903   0.044  27.691  1.00  0.00    +0.000 H 
BRANCH    9   10
ATOM     10  N2  UNL A   1      15.308   1.891  28.316  1.00  0.00    +0.000 N 
ATOM    109  H14 UNL A   1      15.040   1.461  29.161  1.00  0.00    +0.000 H 
BRANCH   10   11
ATOM     11  C8  UNL A   1      15.269   3.254  28.307  1.00  0.00    +0.000 C 
ATOM     12  O2  UNL A   1      15.747   3.828  27.327  1.00  0.00    +0.000 O 
BRANCH   11   13
ATOM     13  C9  UNL A   1      14.663   4.005  29.515  1.00  0.00    +0.000 C 
ATOM     14  C10 UNL A   1      14.335   5.456  29.185  1.00  0.00    +0.000 C 
ATOM    110  H15 UNL A   1      15.416   3.981  30.276  1.00  0.00    +0.000 H 
ATOM    111  H16 UNL A   1      14.432   5.627  28.134  1.00  0.00    +0.000 H 
ATOM     15  C11 UNL A   1      12.889   5.683  29.627  1.00  0.00    +0.000 C 
ATOM    112  H17 UNL A   1      15.004   6.128  29.682  1.00  0.00    +0.000 H 
ATOM    118  H23 UNL A   1      11.671   4.326  30.629  1.00  0.00    +0.000 H 
ATOM     24  C18 UNL A   1      12.345   4.238  29.803  1.00  0.00    +0.000 C 
ATOM     32  O4  UNL A   1      13.479   3.371  29.998  1.00  0.00    +0.000 O 
BRANCH   15   16
ATOM    113  H18 UNL A   1      12.155   7.283  28.698  1.00  0.00    +0.000 H 
ATOM     16  O3  UNL A   1      12.190   6.326  28.540  1.00  0.00    +0.000 O 
ENDBRANCH   15   16
BRANCH   15   17
ATOM     17  C12 UNL A   1      12.871   6.709  30.780  1.00  0.00    +0.000 C 
ATOM     18  C13 UNL A   1      12.506   6.183  32.054  1.00  0.00    +0.000 C 
ATOM     19  C14 UNL A   1      12.480   6.954  33.217  1.00  0.00    +0.000 C 
ATOM    114  H19 UNL A   1      12.248   5.185  32.119  1.00  0.00    +0.000 H 
ATOM     21  C16 UNL A   1      13.162   8.851  31.928  1.00  0.00    +0.000 C 
ATOM     22  C17 UNL A   1      13.148   8.088  30.744  1.00  0.00    +0.000 C 
ATOM     23 Cl1  UNL A   1      13.401   9.019  29.313  1.00  0.00    +0.000 Cl
ATOM    115  H20 UNL A   1      12.198   6.531  34.115  1.00  0.00    +0.000 H 
ATOM     20  C15 UNL A   1      12.835   8.289  33.159  1.00  0.00    +0.000 C 
ATOM    117  H22 UNL A   1      13.420   9.849  31.882  1.00  0.00    +0.000 H 
ATOM    116  H21 UNL A   1      12.858   8.863  34.017  1.00  0.00    +0.000 H 
ENDBRANCH   15   17
BRANCH   24   25
ATOM    122  H27 UNL A   1       8.243   3.248  27.779  1.00  0.00    +0.000 H 
ATOM    121  H26 UNL A   1       9.256   1.803  26.116  1.00  0.00    +0.000 H 
ATOM    119  H24 UNL A   1      13.052   2.719  27.651  1.00  0.00    +0.000 H 
ATOM    120  H25 UNL A   1      11.667   1.568  26.041  1.00  0.00    +0.000 H 
ATOM     25  C19 UNL A   1      11.466   3.623  28.714  1.00  0.00    +0.000 C 
ATOM     26  C20 UNL A   1      12.026   2.822  27.702  1.00  0.00    +0.000 C 
ATOM     27  C21 UNL A   1      11.228   2.162  26.763  1.00  0.00    +0.000 C 
ATOM     28  C22 UNL A   1       9.847   2.303  26.798  1.00  0.00    +0.000 C 
ATOM     29  C23 UNL A   1       9.267   3.123  27.761  1.00  0.00    +0.000 C 
ATOM     30  C24 UNL A   1      10.064   3.783  28.707  1.00  0.00    +0.000 C 
ATOM     31 Cl2  UNL A   1       9.227   4.800  29.830  1.00  0.00    +0.000 Cl
ENDBRANCH   24   25
ENDBRANCH   11   13
ENDBRANCH   10   11
ENDBRANCH    9   10
ENDBRANCH    8    9
ENDBRANCH    7    8
ENDBRANCH    6    7
ENDBRANCH    5    6
ENDBRANCH    4    5
ENDBRANCH    3    4
ENDBRANCH    2    3
ENDBRANCH   33    2
ENDBRANCH   37   36
BRANCH   41   42
ATOM     42  C33 UNL A   1      12.757   5.035  16.095  1.00  0.00    +0.000 C 
ATOM     43  C34 UNL A   1      12.267   4.381  14.956  1.00  0.00    +0.000 C 
ATOM     44  F1  UNL A   1      10.994   3.960  14.914  1.00  0.00    +0.000 F 
ATOM     45  C35 UNL A   1      13.087   4.149  13.855  1.00  0.00    +0.000 C 
ATOM     46  F2  UNL A   1      12.603   3.506  12.783  1.00  0.00    +0.000 F 
ATOM     47  C36 UNL A   1      14.405   4.583  13.864  1.00  0.00    +0.000 C 
ATOM     48  F3  UNL A   1      15.188   4.377  12.795  1.00  0.00    +0.000 F 
ATOM     49  C37 UNL A   1      14.910   5.234  14.979  1.00  0.00    +0.000 C 
ATOM     50  F4  UNL A   1      16.179   5.666  14.984  1.00  0.00    +0.000 F 
ATOM     51  C38 UNL A   1      14.098   5.448  16.088  1.00  0.00    +0.000 C 
ATOM     52  F5  UNL A   1      14.613   6.085  17.152  1.00  0.00    +0.000 F 
ENDBRANCH   41   42
BRANCH   58   59
ATOM     65  F8  UNL A   1       7.943  14.499  16.932  1.00  0.00    +0.000 F 
ATOM     66  C48 UNL A   1       9.358  13.044  18.140  1.00  0.00    +0.000 C 
ATOM     67  F9  UNL A   1      10.156  14.070  18.466  1.00  0.00    +0.000 F 
ATOM     68  C49 UNL A   1       9.670  11.758  18.571  1.00  0.00    +0.000 C 
ATOM     69  F10 UNL A   1      10.779  11.572  19.303  1.00  0.00    +0.000 F 
ATOM     59  C44 UNL A   1       8.841  10.672  18.256  1.00  0.00    +0.000 C 
ATOM     60  C45 UNL A   1       7.691  10.920  17.492  1.00  0.00    +0.000 C 
ATOM     61  F6  UNL A   1       6.878   9.910  17.148  1.00  0.00    +0.000 F 
ATOM     62  C46 UNL A   1       7.398  12.202  17.038  1.00  0.00    +0.000 C 
ATOM     63  F7  UNL A   1       6.321  12.409  16.267  1.00  0.00    +0.000 F 
ATOM     64  C47 UNL A   1       8.228  13.264  17.367  1.00  0.00    +0.000 C 
ENDBRANCH   58   59
BRANCH   73   74
ATOM     74  C53 UNL A   1       7.151   7.235  24.064  1.00  0.00    +0.000 C 
ATOM     75  C54 UNL A   1       7.710   7.996  25.098  1.00  0.00    +0.000 C 
ATOM     76  F11 UNL A   1       8.985   8.403  25.016  1.00  0.00    +0.000 F 
ATOM     77  C55 UNL A   1       6.973   8.307  26.240  1.00  0.00    +0.000 C 
ATOM     78  F12 UNL A   1       7.546   8.996  27.235  1.00  0.00    +0.000 F 
ATOM     79  C56 UNL A   1       5.655   7.891  26.353  1.00  0.00    +0.000 C 
ATOM     80  F13 UNL A   1       4.946   8.195  27.449  1.00  0.00    +0.000 F 
ATOM     81  C57 UNL A   1       5.075   7.154  25.332  1.00  0.00    +0.000 C 
ATOM     82  F14 UNL A   1       3.797   6.764  25.430  1.00  0.00    +0.000 F 
ATOM     83  C58 UNL A   1       5.820   6.816  24.206  1.00  0.00    +0.000 C 
ATOM     84  F15 UNL A   1       5.238   6.089  23.240  1.00  0.00    +0.000 F 
ENDBRANCH   73   74
TORSDOF 18
ENDMDL
MODEL 3
REMARK VINA RESULT:     -10.9      4.549      7.939
ROOT
ATOM    129  H34 UNL A   1      38.691  28.406  29.997  1.00  0.00    +0.000 H 
ATOM    130  H35 UNL A   1      42.568  28.904  28.583  1.00  0.00    +0.000 H 
ATOM    131  H36 UNL A   1      43.802  24.535  26.429  1.00  0.00    +0.000 H 
ATOM    132  H37 UNL A   1      46.072  25.594  25.898  1.00  0.00    +0.000 H 
ATOM    133  H38 UNL A   1      43.044  34.329  29.864  1.00  0.00    +0.000 H 
ATOM    134  H39 UNL A   1      40.865  33.222  30.634  1.00  0.00    +0.000 H 
ATOM     37  C29 UNL A   1      40.633  30.483  29.856  1.00  0.00    +0.000 C 
ATOM     38  C30 UNL A   1      41.790  31.412  29.630  1.00  0.00    +0.000 C 
ATOM     39  N3  UNL A   1      42.935  31.170  29.041  1.00  0.00    +0.000 N 
ATOM     40  C31 UNL A   1      43.642  32.363  29.072  1.00  0.00    +0.000 C 
ATOM     41  C32 UNL A   1      44.888  32.614  28.604  1.00  0.00    +0.000 C 
ATOM     53  C39 UNL A   1      45.735  31.630  27.978  1.00  0.00    +0.000 C 
ATOM     54  C40 UNL A   1      47.039  31.773  27.533  1.00  0.00    +0.000 C 
ATOM     55  C41 UNL A   1      47.437  30.569  26.944  1.00  0.00    +0.000 C 
ATOM     56  C42 UNL A   1      46.398  29.661  27.061  1.00  0.00    +0.000 C 
ATOM     57  N4  UNL A   1      45.361  30.324  27.701  1.00  0.00    +0.000 N 
ATOM     58  C43 UNL A   1      46.350  28.292  26.616  1.00  0.00    +0.000 C 
ATOM     70  C50 UNL A   1      45.313  27.443  26.821  1.00  0.00    +0.000 C 
ATOM     71  N5  UNL A   1      44.105  27.682  27.457  1.00  0.00    +0.000 N 
ATOM     72  C51 UNL A   1      43.427  26.564  27.368  1.00  0.00    +0.000 C 
ATOM     73  C52 UNL A   1      42.054  26.247  27.888  1.00  0.00    +0.000 C 
ATOM     85  C59 UNL A   1      41.365  27.204  28.533  1.00  0.00    +0.000 C 
ATOM     86  C60 UNL A   1      40.024  27.045  29.082  1.00  0.00    +0.000 C 
ATOM     87  C61 UNL A   1      39.616  28.221  29.579  1.00  0.00    +0.000 C 
ATOM     88  C62 UNL A   1      40.694  29.205  29.436  1.00  0.00    +0.000 C 
ATOM     89  N6  UNL A   1      41.696  28.508  28.811  1.00  0.00    +0.000 N 
ATOM     90  C63 UNL A   1      44.127  25.489  26.653  1.00  0.00    +0.000 C 
ATOM     91  C64 UNL A   1      45.287  26.066  26.374  1.00  0.00    +0.000 C 
ATOM     92  C65 UNL A   1      42.793  33.339  29.724  1.00  0.00    +0.000 C 
ATOM     93  C66 UNL A   1      41.649  32.792  30.119  1.00  0.00    +0.000 C 
ATOM    125  H30 UNL A   1      47.618  32.623  27.622  1.00  0.00    +0.000 H 
ATOM    126  H31 UNL A   1      48.349  30.387  26.497  1.00  0.00    +0.000 H 
ATOM    127  H32 UNL A   1      44.489  29.926  27.925  1.00  0.00    +0.000 H 
ATOM    128  H33 UNL A   1      39.476  26.170  29.086  1.00  0.00    +0.000 H 
ENDROOT
BRANCH   37   36
ATOM     33  C25 UNL A   1      37.144  31.982  31.839  1.00  0.00    +0.000 C 
ATOM     34  C26 UNL A   1      37.300  32.142  30.460  1.00  0.00    +0.000 C 
ATOM     35  C27 UNL A   1      38.390  31.569  29.813  1.00  0.00    +0.000 C 
ATOM     36  C28 UNL A   1      39.401  30.933  30.552  1.00  0.00    +0.000 C 
ATOM    135  H40 UNL A   1      40.018  30.385  32.501  1.00  0.00    +0.000 H 
ATOM    136  H41 UNL A   1      38.034  31.244  33.608  1.00  0.00    +0.000 H 
ATOM    123  H28 UNL A   1      36.607  32.685  29.921  1.00  0.00    +0.000 H 
ATOM    124  H29 UNL A   1      38.456  31.612  28.784  1.00  0.00    +0.000 H 
ATOM     94  C67 UNL A   1      39.273  30.833  31.945  1.00  0.00    +0.000 C 
ATOM     95  C68 UNL A   1      38.137  31.341  32.586  1.00  0.00    +0.000 C 
BRANCH   33    2
ATOM      1  O1  UNL A   1      35.882  32.455  33.757  1.00  0.00    +0.000 O 
ATOM      2  C1  UNL A   1      35.951  32.517  32.537  1.00  0.00    +0.000 C 
BRANCH    2    3
ATOM      3  N1  UNL A   1      34.922  33.069  31.811  1.00  0.00    +0.000 N 
ATOM     96  H1  UNL A   1      34.300  32.426  31.400  1.00  0.00    +0.000 H 
BRANCH    3    4
ATOM     97  H2  UNL A   1      35.546  35.008  31.500  1.00  0.00    +0.000 H 
ATOM     98  H3  UNL A   1      34.020  34.819  32.377  1.00  0.00    +0.000 H 
ATOM      4  C2  UNL A   1      34.624  34.469  31.566  1.00  0.00    +0.000 C 
BRANCH    4    5
ATOM     99  H4  UNL A   1      33.147  35.481  30.443  1.00  0.00    +0.000 H 
ATOM    100  H5  UNL A   1      33.372  33.747  30.058  1.00  0.00    +0.000 H 
ATOM      5  C3  UNL A   1      33.841  34.683  30.280  1.00  0.00    +0.000 C 
BRANCH    5    6
ATOM    102  H7  UNL A   1      34.094  35.719  28.485  1.00  0.00    +0.000 H 
ATOM    101  H6  UNL A   1      35.613  35.439  29.404  1.00  0.00    +0.000 H 
ATOM      6  C4  UNL A   1      34.686  35.035  29.055  1.00  0.00    +0.000 C 
BRANCH    6    7
ATOM    103  H8  UNL A   1      36.047  33.646  28.214  1.00  0.00    +0.000 H 
ATOM      7  C5  UNL A   1      35.008  33.877  28.104  1.00  0.00    +0.000 C 
ATOM    104  H9  UNL A   1      34.729  34.227  27.132  1.00  0.00    +0.000 H 
BRANCH    7    8
ATOM    105  H10 UNL A   1      33.304  32.660  27.757  1.00  0.00    +0.000 H 
ATOM    106  H11 UNL A   1      34.085  32.483  29.365  1.00  0.00    +0.000 H 
ATOM      8  C6  UNL A   1      34.218  32.577  28.308  1.00  0.00    +0.000 C 
BRANCH    8    9
ATOM      9  C7  UNL A   1      34.919  31.295  27.862  1.00  0.00    +0.000 C 
ATOM    107  H12 UNL A   1      35.043  30.660  28.714  1.00  0.00    +0.000 H 
ATOM    108  H13 UNL A   1      35.859  31.578  27.435  1.00  0.00    +0.000 H 
BRANCH    9   10
ATOM     10  N2  UNL A   1      34.184  30.572  26.851  1.00  0.00    +0.000 N 
ATOM    109  H14 UNL A   1      34.151  30.994  25.961  1.00  0.00    +0.000 H 
BRANCH   10   11
ATOM     11  C8  UNL A   1      33.529  29.382  26.966  1.00  0.00    +0.000 C 
ATOM     12  O2  UNL A   1      34.147  28.442  27.471  1.00  0.00    +0.000 O 
BRANCH   11   13
ATOM     13  C9  UNL A   1      32.079  29.258  26.445  1.00  0.00    +0.000 C 
ATOM     14  C10 UNL A   1      31.994  29.425  24.934  1.00  0.00    +0.000 C 
ATOM    110  H15 UNL A   1      31.536  30.051  26.917  1.00  0.00    +0.000 H 
ATOM    111  H16 UNL A   1      32.974  29.429  24.506  1.00  0.00    +0.000 H 
ATOM     15  C11 UNL A   1      31.193  28.231  24.412  1.00  0.00    +0.000 C 
ATOM    112  H17 UNL A   1      31.526  30.351  24.672  1.00  0.00    +0.000 H 
ATOM    118  H23 UNL A   1      30.267  26.763  25.558  1.00  0.00    +0.000 H 
ATOM     24  C18 UNL A   1      31.224  27.239  25.607  1.00  0.00    +0.000 C 
ATOM     32  O4  UNL A   1      31.491  28.005  26.797  1.00  0.00    +0.000 O 
BRANCH   15   16
ATOM    113  H18 UNL A   1      31.846  26.695  23.327  1.00  0.00    +0.000 H 
ATOM     16  O3  UNL A   1      31.921  27.662  23.302  1.00  0.00    +0.000 O 
ENDBRANCH   15   16
BRANCH   15   17
ATOM     17  C12 UNL A   1      29.868  28.740  23.806  1.00  0.00    +0.000 C 
ATOM     18  C13 UNL A   1      29.804  30.147  23.585  1.00  0.00    +0.000 C 
ATOM     19  C14 UNL A   1      28.702  30.777  23.004  1.00  0.00    +0.000 C 
ATOM    114  H19 UNL A   1      30.610  30.728  23.867  1.00  0.00    +0.000 H 
ATOM     21  C16 UNL A   1      27.623  28.648  22.835  1.00  0.00    +0.000 C 
ATOM     22  C17 UNL A   1      28.714  28.013  23.461  1.00  0.00    +0.000 C 
ATOM     23 Cl1  UNL A   1      28.438  26.348  23.820  1.00  0.00    +0.000 Cl
ATOM    115  H20 UNL A   1      28.698  31.801  22.873  1.00  0.00    +0.000 H 
ATOM     20  C15 UNL A   1      27.617  30.020  22.602  1.00  0.00    +0.000 C 
ATOM    117  H22 UNL A   1      26.810  28.084  22.544  1.00  0.00    +0.000 H 
ATOM    116  H21 UNL A   1      26.811  30.467  22.136  1.00  0.00    +0.000 H 
ENDBRANCH   15   17
BRANCH   24   25
ATOM    122  H27 UNL A   1      32.421  22.777  26.358  1.00  0.00    +0.000 H 
ATOM    121  H26 UNL A   1      34.747  23.162  25.794  1.00  0.00    +0.000 H 
ATOM    119  H24 UNL A   1      33.847  27.155  24.870  1.00  0.00    +0.000 H 
ATOM    120  H25 UNL A   1      35.446  25.350  25.021  1.00  0.00    +0.000 H 
ATOM     25  C19 UNL A   1      32.191  26.055  25.583  1.00  0.00    +0.000 C 
ATOM     26  C20 UNL A   1      33.536  26.232  25.210  1.00  0.00    +0.000 C 
ATOM     27  C21 UNL A   1      34.462  25.187  25.287  1.00  0.00    +0.000 C 
ATOM     28  C22 UNL A   1      34.061  23.930  25.720  1.00  0.00    +0.000 C 
ATOM     29  C23 UNL A   1      32.728  23.714  26.055  1.00  0.00    +0.000 C 
ATOM     30  C24 UNL A   1      31.799  24.761  25.983  1.00  0.00    +0.000 C 
ATOM     31 Cl2  UNL A   1      30.165  24.357  26.394  1.00  0.00    +0.000 Cl
ENDBRANCH   24   25
ENDBRANCH   11   13
ENDBRANCH   10   11
ENDBRANCH    9   10
ENDBRANCH    8    9
ENDBRANCH    7    8
ENDBRANCH    6    7
ENDBRANCH    5    6
ENDBRANCH    4    5
ENDBRANCH    3    4
ENDBRANCH    2    3
ENDBRANCH   33    2
ENDBRANCH   37   36
BRANCH   41   42
ATOM     42  C33 UNL A   1      45.427  34.008  28.735  1.00  0.00    +0.000 C 
ATOM     43  C34 UNL A   1      46.243  34.383  29.811  1.00  0.00    +0.000 C 
ATOM     44  F1  UNL A   1      46.481  33.521  30.810  1.00  0.00    +0.000 F 
ATOM     45  C35 UNL A   1      46.813  35.653  29.868  1.00  0.00    +0.000 C 
ATOM     46  F2  UNL A   1      47.577  35.997  30.915  1.00  0.00    +0.000 F 
ATOM     47  C36 UNL A   1      46.595  36.562  28.843  1.00  0.00    +0.000 C 
ATOM     48  F3  UNL A   1      47.161  37.777  28.890  1.00  0.00    +0.000 F 
ATOM     49  C37 UNL A   1      45.792  36.211  27.769  1.00  0.00    +0.000 C 
ATOM     50  F4  UNL A   1      45.590  37.084  26.771  1.00  0.00    +0.000 F 
ATOM     51  C38 UNL A   1      45.204  34.951  27.719  1.00  0.00    +0.000 C 
ATOM     52  F5  UNL A   1      44.436  34.638  26.664  1.00  0.00    +0.000 F 
ENDBRANCH   41   42
BRANCH   58   59
ATOM     65  F8  UNL A   1      50.811  26.230  23.837  1.00  0.00    +0.000 F 
ATOM     66  C48 UNL A   1      48.656  27.196  23.798  1.00  0.00    +0.000 C 
ATOM     67  F9  UNL A   1      48.653  27.166  22.458  1.00  0.00    +0.000 F 
ATOM     68  C49 UNL A   1      47.564  27.721  24.483  1.00  0.00    +0.000 C 
ATOM     69  F10 UNL A   1      46.526  28.198  23.779  1.00  0.00    +0.000 F 
ATOM     59  C44 UNL A   1      47.538  27.747  25.884  1.00  0.00    +0.000 C 
ATOM     60  C45 UNL A   1      48.646  27.232  26.575  1.00  0.00    +0.000 C 
ATOM     61  F6  UNL A   1      48.675  27.254  27.916  1.00  0.00    +0.000 F 
ATOM     62  C46 UNL A   1      49.748  26.735  25.886  1.00  0.00    +0.000 C 
ATOM     63  F7  UNL A   1      50.816  26.294  26.565  1.00  0.00    +0.000 F 
ATOM     64  C47 UNL A   1      49.750  26.711  24.499  1.00  0.00    +0.000 C 
ENDBRANCH   58   59
BRANCH   73   74
ATOM     74  C53 UNL A   1      41.446  24.908  27.681  1.00  0.00    +0.000 C 
ATOM     75  C54 UNL A   1      41.922  23.783  28.367  1.00  0.00    +0.000 C 
ATOM     76  F11 UNL A   1      42.955  23.903  29.213  1.00  0.00    +0.000 F 
ATOM     77  C55 UNL A   1      41.363  22.524  28.155  1.00  0.00    +0.000 C 
ATOM     78  F12 UNL A   1      41.868  21.457  28.789  1.00  0.00    +0.000 F 
ATOM     79  C56 UNL A   1      40.299  22.371  27.279  1.00  0.00    +0.000 C 
ATOM     80  F13 UNL A   1      39.761  21.161  27.079  1.00  0.00    +0.000 F 
ATOM     81  C57 UNL A   1      39.799  23.475  26.604  1.00  0.00    +0.000 C 
ATOM     82  F14 UNL A   1      38.761  23.335  25.769  1.00  0.00    +0.000 F 
ATOM     83  C58 UNL A   1      40.376  24.727  26.791  1.00  0.00    +0.000 C 
ATOM     84  F15 UNL A   1      39.882  25.775  26.114  1.00  0.00    +0.000 F 
ENDBRANCH   73   74
TORSDOF 18
ENDMDL
MODEL 4
REMARK VINA RESULT:     -10.8     33.514     38.289
ROOT
ATOM    129  H34 UNL A   1      12.265   1.447  19.624  1.00  0.00    +0.000 H 
ATOM    130  H35 UNL A   1      10.600   5.244  19.925  1.00  0.00    +0.000 H 
ATOM    131  H36 UNL A   1      11.944   7.657  15.728  1.00  0.00    +0.000 H 
ATOM    132  H37 UNL A   1      10.657   9.674  16.638  1.00  0.00    +0.000 H 
ATOM    133  H38 UNL A   1       7.765   4.345  24.665  1.00  0.00    +0.000 H 
ATOM    134  H39 UNL A   1       9.251   2.400  23.905  1.00  0.00    +0.000 H 
ATOM     37  C29 UNL A   1      10.587   2.876  21.426  1.00  0.00    +0.000 C 
ATOM     38  C30 UNL A   1       9.696   3.812  22.189  1.00  0.00    +0.000 C 
ATOM     39  N3  UNL A   1       9.347   5.040  21.892  1.00  0.00    +0.000 N 
ATOM     40  C31 UNL A   1       8.496   5.453  22.907  1.00  0.00    +0.000 C 
ATOM     41  C32 UNL A   1       7.888   6.654  23.057  1.00  0.00    +0.000 C 
ATOM     53  C39 UNL A   1       8.045   7.764  22.152  1.00  0.00    +0.000 C 
ATOM     54  C40 UNL A   1       7.524   9.043  22.257  1.00  0.00    +0.000 C 
ATOM     55  C41 UNL A   1       7.894   9.763  21.117  1.00  0.00    +0.000 C 
ATOM     56  C42 UNL A   1       8.682   8.948  20.321  1.00  0.00    +0.000 C 
ATOM     57  N4  UNL A   1       8.769   7.726  20.970  1.00  0.00    +0.000 N 
ATOM     58  C43 UNL A   1       9.303   9.258  19.060  1.00  0.00    +0.000 C 
ATOM     70  C50 UNL A   1      10.114   8.424  18.366  1.00  0.00    +0.000 C 
ATOM     71  N5  UNL A   1      10.505   7.130  18.677  1.00  0.00    +0.000 N 
ATOM     72  C51 UNL A   1      11.260   6.735  17.682  1.00  0.00    +0.000 C 
ATOM     73  C52 UNL A   1      11.960   5.420  17.491  1.00  0.00    +0.000 C 
ATOM     85  C59 UNL A   1      11.824   4.467  18.430  1.00  0.00    +0.000 C 
ATOM     86  C60 UNL A   1      12.434   3.144  18.375  1.00  0.00    +0.000 C 
ATOM     87  C61 UNL A   1      12.017   2.431  19.431  1.00  0.00    +0.000 C 
ATOM     88  C62 UNL A   1      11.155   3.269  20.269  1.00  0.00    +0.000 C 
ATOM     89  N6  UNL A   1      11.104   4.464  19.600  1.00  0.00    +0.000 N 
ATOM     90  C63 UNL A   1      11.427   7.733  16.618  1.00  0.00    +0.000 C 
ATOM     91  C64 UNL A   1      10.739   8.757  17.102  1.00  0.00    +0.000 C 
ATOM     92  C65 UNL A   1       8.364   4.340  23.825  1.00  0.00    +0.000 C 
ATOM     93  C66 UNL A   1       9.113   3.312  23.443  1.00  0.00    +0.000 C 
ATOM    125  H30 UNL A   1       6.960   9.403  23.043  1.00  0.00    +0.000 H 
ATOM    126  H31 UNL A   1       7.624  10.737  20.903  1.00  0.00    +0.000 H 
ATOM    127  H32 UNL A   1       9.273   6.946  20.640  1.00  0.00    +0.000 H 
ATOM    128  H33 UNL A   1      13.079   2.810  17.643  1.00  0.00    +0.000 H 
ENDROOT
BRANCH   37   36
ATOM     33  C25 UNL A   1      11.577  -1.092  22.699  1.00  0.00    +0.000 C 
ATOM     34  C26 UNL A   1      12.448  -0.029  22.949  1.00  0.00    +0.000 C 
ATOM     35  C27 UNL A   1      12.073   1.269  22.616  1.00  0.00    +0.000 C 
ATOM     36  C28 UNL A   1      10.877   1.506  21.919  1.00  0.00    +0.000 C 
ATOM    135  H40 UNL A   1       9.166   0.586  21.081  1.00  0.00    +0.000 H 
ATOM    136  H41 UNL A   1       9.746  -1.658  21.808  1.00  0.00    +0.000 H 
ATOM    123  H28 UNL A   1      13.369  -0.205  23.381  1.00  0.00    +0.000 H 
ATOM    124  H29 UNL A   1      12.677   2.061  22.883  1.00  0.00    +0.000 H 
ATOM     94  C67 UNL A   1      10.038   0.427  21.610  1.00  0.00    +0.000 C 
ATOM     95  C68 UNL A   1      10.379  -0.869  22.015  1.00  0.00    +0.000 C 
BRANCH   33    2
ATOM      1  O1  UNL A   1      11.934  -3.372  22.285  1.00  0.00    +0.000 O 
ATOM      2  C1  UNL A   1      11.922  -2.473  23.115  1.00  0.00    +0.000 C 
BRANCH    2    3
ATOM      3  N1  UNL A   1      12.214  -2.739  24.432  1.00  0.00    +0.000 N 
ATOM     96  H1  UNL A   1      13.170  -2.750  24.661  1.00  0.00    +0.000 H 
BRANCH    3    4
ATOM     97  H2  UNL A   1      11.370  -4.044  25.787  1.00  0.00    +0.000 H 
ATOM     98  H3  UNL A   1      10.319  -2.742  25.211  1.00  0.00    +0.000 H 
ATOM      4  C2  UNL A   1      11.304  -3.007  25.533  1.00  0.00    +0.000 C 
BRANCH    4    5
ATOM     99  H4  UNL A   1      12.297  -2.746  27.380  1.00  0.00    +0.000 H 
ATOM    100  H5  UNL A   1      10.686  -1.976  27.241  1.00  0.00    +0.000 H 
ATOM      5  C3  UNL A   1      11.625  -2.181  26.769  1.00  0.00    +0.000 C 
BRANCH    5    6
ATOM    102  H7  UNL A   1      12.327  -0.743  25.428  1.00  0.00    +0.000 H 
ATOM    101  H6  UNL A   1      11.657  -0.072  26.955  1.00  0.00    +0.000 H 
ATOM      6  C4  UNL A   1      12.266  -0.820  26.493  1.00  0.00    +0.000 C 
BRANCH    6    7
ATOM    103  H8  UNL A   1      14.199  -1.579  26.914  1.00  0.00    +0.000 H 
ATOM      7  C5  UNL A   1      13.700  -0.636  27.000  1.00  0.00    +0.000 C 
ATOM    104  H9  UNL A   1      13.600  -0.274  28.002  1.00  0.00    +0.000 H 
BRANCH    7    8
ATOM    105  H10 UNL A   1      13.898   1.072  25.756  1.00  0.00    +0.000 H 
ATOM    106  H11 UNL A   1      15.215  -0.144  25.639  1.00  0.00    +0.000 H 
ATOM      8  C6  UNL A   1      14.559   0.411  26.277  1.00  0.00    +0.000 C 
BRANCH    8    9
ATOM      9  C7  UNL A   1      15.465   1.259  27.166  1.00  0.00    +0.000 C 
ATOM    107  H12 UNL A   1      16.252   1.663  26.565  1.00  0.00    +0.000 H 
ATOM    108  H13 UNL A   1      15.840   0.622  27.940  1.00  0.00    +0.000 H 
BRANCH    9   10
ATOM     10  N2  UNL A   1      14.766   2.350  27.806  1.00  0.00    +0.000 N 
ATOM    109  H14 UNL A   1      13.811   2.198  27.989  1.00  0.00    +0.000 H 
BRANCH   10   11
ATOM     11  C8  UNL A   1      15.257   3.563  28.190  1.00  0.00    +0.000 C 
ATOM     12  O2  UNL A   1      16.174   4.042  27.518  1.00  0.00    +0.000 O 
BRANCH   11   13
ATOM     13  C9  UNL A   1      14.673   4.258  29.440  1.00  0.00    +0.000 C 
ATOM     14  C10 UNL A   1      14.267   5.700  29.161  1.00  0.00    +0.000 C 
ATOM    110  H15 UNL A   1      15.460   4.250  30.167  1.00  0.00    +0.000 H 
ATOM    111  H16 UNL A   1      14.310   5.899  28.111  1.00  0.00    +0.000 H 
ATOM     15  C11 UNL A   1      12.833   5.851  29.671  1.00  0.00    +0.000 C 
ATOM    112  H17 UNL A   1      14.927   6.389  29.645  1.00  0.00    +0.000 H 
ATOM    118  H23 UNL A   1      11.722   4.418  30.691  1.00  0.00    +0.000 H 
ATOM     24  C18 UNL A   1      12.362   4.379  29.835  1.00  0.00    +0.000 C 
ATOM     32  O4  UNL A   1      13.541   3.560  29.959  1.00  0.00    +0.000 O 
BRANCH   15   16
ATOM    113  H18 UNL A   1      11.314   5.915  28.387  1.00  0.00    +0.000 H 
ATOM     16  O3  UNL A   1      12.059   6.486  28.631  1.00  0.00    +0.000 O 
ENDBRANCH   15   16
BRANCH   15   17
ATOM     17  C12 UNL A   1      12.822   6.848  30.849  1.00  0.00    +0.000 C 
ATOM     18  C13 UNL A   1      12.526   6.280  32.122  1.00  0.00    +0.000 C 
ATOM     19  C14 UNL A   1      12.516   7.022  33.304  1.00  0.00    +0.000 C 
ATOM    114  H19 UNL A   1      12.308   5.272  32.173  1.00  0.00    +0.000 H 
ATOM     21  C16 UNL A   1      13.076   8.974  32.037  1.00  0.00    +0.000 C 
ATOM     22  C17 UNL A   1      13.044   8.238  30.836  1.00  0.00    +0.000 C 
ATOM     23 Cl1  UNL A   1      13.207   9.211  29.420  1.00  0.00    +0.000 Cl
ATOM    115  H20 UNL A   1      12.285   6.568  34.201  1.00  0.00    +0.000 H 
ATOM     20  C15 UNL A   1      12.818   8.371  33.265  1.00  0.00    +0.000 C 
ATOM    117  H22 UNL A   1      13.294   9.981  32.006  1.00  0.00    +0.000 H 
ATOM    116  H21 UNL A   1      12.853   8.925  34.135  1.00  0.00    +0.000 H 
ENDBRANCH   15   17
BRANCH   24   25
ATOM    122  H27 UNL A   1       8.222   3.303  27.935  1.00  0.00    +0.000 H 
ATOM    121  H26 UNL A   1       9.216   1.893  26.231  1.00  0.00    +0.000 H 
ATOM    119  H24 UNL A   1      13.036   2.892  27.651  1.00  0.00    +0.000 H 
ATOM    120  H25 UNL A   1      11.628   1.718  26.077  1.00  0.00    +0.000 H 
ATOM     25  C19 UNL A   1      11.463   3.750  28.770  1.00  0.00    +0.000 C 
ATOM     26  C20 UNL A   1      12.010   2.970  27.735  1.00  0.00    +0.000 C 
ATOM     27  C21 UNL A   1      11.199   2.296  26.817  1.00  0.00    +0.000 C 
ATOM     28  C22 UNL A   1       9.816   2.404  26.897  1.00  0.00    +0.000 C 
ATOM     29  C23 UNL A   1       9.248   3.204  27.884  1.00  0.00    +0.000 C 
ATOM     30  C24 UNL A   1      10.059   3.876  28.808  1.00  0.00    +0.000 C 
ATOM     31 Cl2  UNL A   1       9.234   4.866  29.966  1.00  0.00    +0.000 Cl
ENDBRANCH   24   25
ENDBRANCH   11   13
ENDBRANCH   10   11
ENDBRANCH    9   10
ENDBRANCH    8    9
ENDBRANCH    7    8
ENDBRANCH    6    7
ENDBRANCH    5    6
ENDBRANCH    4    5
ENDBRANCH    3    4
ENDBRANCH    2    3
ENDBRANCH   33    2
ENDBRANCH   37   36
BRANCH   41   42
ATOM     42  C33 UNL A   1       6.984   6.848  24.239  1.00  0.00    +0.000 C 
ATOM     43  C34 UNL A   1       5.672   6.354  24.250  1.00  0.00    +0.000 C 
ATOM     44  F1  UNL A   1       5.159   5.778  23.152  1.00  0.00    +0.000 F 
ATOM     45  C35 UNL A   1       4.878   6.457  25.389  1.00  0.00    +0.000 C 
ATOM     46  F2  UNL A   1       3.620   5.994  25.373  1.00  0.00    +0.000 F 
ATOM     47  C36 UNL A   1       5.386   7.036  26.543  1.00  0.00    +0.000 C 
ATOM     48  F3  UNL A   1       4.627   7.117  27.645  1.00  0.00    +0.000 F 
ATOM     49  C37 UNL A   1       6.682   7.530  26.555  1.00  0.00    +0.000 C 
ATOM     50  F4  UNL A   1       7.179   8.078  27.673  1.00  0.00    +0.000 F 
ATOM     51  C38 UNL A   1       7.470   7.447  25.411  1.00  0.00    +0.000 C 
ATOM     52  F5  UNL A   1       8.722   7.929  25.454  1.00  0.00    +0.000 F 
ENDBRANCH   41   42
BRANCH   58   59
ATOM     65  F8  UNL A   1       8.360  14.346  16.801  1.00  0.00    +0.000 F 
ATOM     66  C48 UNL A   1       7.754  12.074  17.027  1.00  0.00    +0.000 C 
ATOM     67  F9  UNL A   1       6.725  12.252  16.186  1.00  0.00    +0.000 F 
ATOM     68  C49 UNL A   1       7.976  10.824  17.598  1.00  0.00    +0.000 C 
ATOM     69  F10 UNL A   1       7.141   9.818  17.298  1.00  0.00    +0.000 F 
ATOM     59  C44 UNL A   1       9.056  10.612  18.466  1.00  0.00    +0.000 C 
ATOM     60  C45 UNL A   1       9.903  11.695  18.744  1.00  0.00    +0.000 C 
ATOM     61  F6  UNL A   1      10.937  11.545  19.585  1.00  0.00    +0.000 F 
ATOM     62  C46 UNL A   1       9.661  12.950  18.194  1.00  0.00    +0.000 C 
ATOM     63  F7  UNL A   1      10.452  13.984  18.513  1.00  0.00    +0.000 F 
ATOM     64  C47 UNL A   1       8.591  13.138  17.331  1.00  0.00    +0.000 C 
ENDBRANCH   58   59
BRANCH   73   74
ATOM     74  C53 UNL A   1      12.777   5.155  16.279  1.00  0.00    +0.000 C 
ATOM     75  C54 UNL A   1      14.125   5.529  16.219  1.00  0.00    +0.000 C 
ATOM     76  F11 UNL A   1      14.693   6.154  17.261  1.00  0.00    +0.000 F 
ATOM     77  C55 UNL A   1      14.884   5.298  15.073  1.00  0.00    +0.000 C 
ATOM     78  F12 UNL A   1      16.158   5.708  15.024  1.00  0.00    +0.000 F 
ATOM     79  C56 UNL A   1      14.318   4.661  13.979  1.00  0.00    +0.000 C 
ATOM     80  F13 UNL A   1      15.049   4.437  12.879  1.00  0.00    +0.000 F 
ATOM     81  C57 UNL A   1      12.990   4.264  14.024  1.00  0.00    +0.000 C 
ATOM     82  F14 UNL A   1      12.443   3.634  12.976  1.00  0.00    +0.000 F 
ATOM     83  C58 UNL A   1      12.223   4.522  15.156  1.00  0.00    +0.000 C 
ATOM     84  F15 UNL A   1      10.936   4.140  15.167  1.00  0.00    +0.000 F 
ENDBRANCH   73   74
TORSDOF 18
ENDMDL
MODEL 5
REMARK VINA RESULT:     -10.7      3.735      9.371
ROOT
ATOM    129  H34 UNL A   1      38.917  26.236  28.559  1.00  0.00    +0.000 H 
ATOM    130  H35 UNL A   1      42.202  28.783  28.561  1.00  0.00    +0.000 H 
ATOM    131  H36 UNL A   1      40.977  32.582  31.613  1.00  0.00    +0.000 H 
ATOM    132  H37 UNL A   1      43.282  33.566  31.090  1.00  0.00    +0.000 H 
ATOM    133  H38 UNL A   1      45.545  25.547  25.453  1.00  0.00    +0.000 H 
ATOM    134  H39 UNL A   1      43.157  24.666  25.753  1.00  0.00    +0.000 H 
ATOM     37  C29 UNL A   1      41.532  26.304  27.436  1.00  0.00    +0.000 C 
ATOM     38  C30 UNL A   1      42.947  26.548  26.999  1.00  0.00    +0.000 C 
ATOM     39  N3  UNL A   1      43.733  27.556  27.285  1.00  0.00    +0.000 N 
ATOM     40  C31 UNL A   1      44.941  27.291  26.655  1.00  0.00    +0.000 C 
ATOM     41  C32 UNL A   1      46.063  28.049  26.638  1.00  0.00    +0.000 C 
ATOM     53  C39 UNL A   1      46.192  29.328  27.290  1.00  0.00    +0.000 C 
ATOM     54  C40 UNL A   1      47.267  30.201  27.272  1.00  0.00    +0.000 C 
ATOM     55  C41 UNL A   1      46.962  31.291  28.092  1.00  0.00    +0.000 C 
ATOM     56  C42 UNL A   1      45.680  31.120  28.587  1.00  0.00    +0.000 C 
ATOM     57  N4  UNL A   1      45.218  29.913  28.084  1.00  0.00    +0.000 N 
ATOM     58  C43 UNL A   1      44.933  31.989  29.460  1.00  0.00    +0.000 C 
ATOM     70  C50 UNL A   1      43.654  31.782  29.856  1.00  0.00    +0.000 C 
ATOM     71  N5  UNL A   1      42.806  30.729  29.547  1.00  0.00    +0.000 N 
ATOM     72  C51 UNL A   1      41.692  30.965  30.195  1.00  0.00    +0.000 C 
ATOM     73  C52 UNL A   1      40.426  30.157  30.224  1.00  0.00    +0.000 C 
ATOM     85  C59 UNL A   1      40.366  29.014  29.518  1.00  0.00    +0.000 C 
ATOM     86  C60 UNL A   1      39.213  28.125  29.459  1.00  0.00    +0.000 C 
ATOM     87  C61 UNL A   1      39.534  27.045  28.734  1.00  0.00    +0.000 C 
ATOM     88  C62 UNL A   1      40.901  27.194  28.226  1.00  0.00    +0.000 C 
ATOM     89  N6  UNL A   1      41.313  28.398  28.737  1.00  0.00    +0.000 N 
ATOM     90  C63 UNL A   1      41.710  32.193  30.999  1.00  0.00    +0.000 C 
ATOM     91  C64 UNL A   1      42.915  32.673  30.727  1.00  0.00    +0.000 C 
ATOM     92  C65 UNL A   1      44.794  26.016  25.983  1.00  0.00    +0.000 C 
ATOM     93  C66 UNL A   1      43.568  25.531  26.137  1.00  0.00    +0.000 C 
ATOM    125  H30 UNL A   1      48.144  30.069  26.742  1.00  0.00    +0.000 H 
ATOM    126  H31 UNL A   1      47.586  32.088  28.296  1.00  0.00    +0.000 H 
ATOM    127  H32 UNL A   1      44.329  29.529  28.264  1.00  0.00    +0.000 H 
ATOM    128  H33 UNL A   1      38.298  28.298  29.905  1.00  0.00    +0.000 H 
ENDROOT
BRANCH   37   36
ATOM     33  C25 UNL A   1      39.220  22.870  26.338  1.00  0.00    +0.000 C 
ATOM     34  C26 UNL A   1      38.831  24.147  25.928  1.00  0.00    +0.000 C 
ATOM     35  C27 UNL A   1      39.640  25.243  26.210  1.00  0.00    +0.000 C 
ATOM     36  C28 UNL A   1      40.785  25.094  27.010  1.00  0.00    +0.000 C 
ATOM    135  H40 UNL A   1      41.963  23.700  28.080  1.00  0.00    +0.000 H 
ATOM    136  H41 UNL A   1      40.637  21.764  27.450  1.00  0.00    +0.000 H 
ATOM    123  H28 UNL A   1      37.944  24.278  25.417  1.00  0.00    +0.000 H 
ATOM    124  H29 UNL A   1      39.397  26.171  25.829  1.00  0.00    +0.000 H 
ATOM     94  C67 UNL A   1      41.135  23.819  27.476  1.00  0.00    +0.000 C 
ATOM     95  C68 UNL A   1      40.363  22.705  27.126  1.00  0.00    +0.000 C 
BRANCH   33    2
ATOM      1  O1  UNL A   1      38.879  20.558  26.147  1.00  0.00    +0.000 O 
ATOM      2  C1  UNL A   1      38.413  21.678  25.983  1.00  0.00    +0.000 C 
BRANCH    2    3
ATOM      3  N1  UNL A   1      37.152  21.835  25.459  1.00  0.00    +0.000 N 
ATOM     96  H1  UNL A   1      36.444  22.044  26.110  1.00  0.00    +0.000 H 
BRANCH    3    4
ATOM     97  H2  UNL A   1      36.227  20.796  23.937  1.00  0.00    +0.000 H 
ATOM     98  H3  UNL A   1      37.587  21.822  23.457  1.00  0.00    +0.000 H 
ATOM      4  C2  UNL A   1      36.718  21.736  24.076  1.00  0.00    +0.000 C 
BRANCH    4    5
ATOM     99  H4  UNL A   1      36.059  23.224  22.727  1.00  0.00    +0.000 H 
ATOM    100  H5  UNL A   1      35.817  23.580  24.465  1.00  0.00    +0.000 H 
ATOM      5  C3  UNL A   1      35.760  22.850  23.684  1.00  0.00    +0.000 C 
BRANCH    5    6
ATOM    102  H7  UNL A   1      34.295  21.375  23.492  1.00  0.00    +0.000 H 
ATOM    101  H6  UNL A   1      33.796  22.797  24.473  1.00  0.00    +0.000 H 
ATOM      6  C4  UNL A   1      34.290  22.440  23.593  1.00  0.00    +0.000 C 
BRANCH    6    7
ATOM    103  H8  UNL A   1      32.788  22.227  22.115  1.00  0.00    +0.000 H 
ATOM      7  C5  UNL A   1      33.517  22.964  22.378  1.00  0.00    +0.000 C 
ATOM    104  H9  UNL A   1      34.260  23.144  21.629  1.00  0.00    +0.000 H 
BRANCH    7    8
ATOM    105  H10 UNL A   1      33.286  24.852  23.319  1.00  0.00    +0.000 H 
ATOM    106  H11 UNL A   1      31.772  24.049  22.783  1.00  0.00    +0.000 H 
ATOM      8  C6  UNL A   1      32.785  24.302  22.550  1.00  0.00    +0.000 C 
BRANCH    8    9
ATOM      9  C7  UNL A   1      32.715  25.189  21.309  1.00  0.00    +0.000 C 
ATOM    107  H12 UNL A   1      31.738  25.104  20.883  1.00  0.00    +0.000 H 
ATOM    108  H13 UNL A   1      33.476  24.853  20.634  1.00  0.00    +0.000 H 
BRANCH    9   10
ATOM     10  N2  UNL A   1      32.975  26.580  21.595  1.00  0.00    +0.000 N 
ATOM    109  H14 UNL A   1      33.639  27.020  21.015  1.00  0.00    +0.000 H 
BRANCH   10   11
ATOM     11  C8  UNL A   1      32.421  27.366  22.562  1.00  0.00    +0.000 C 
ATOM     12  O2  UNL A   1      31.216  27.606  22.475  1.00  0.00    +0.000 O 
BRANCH   11   13
ATOM     13  C9  UNL A   1      33.317  27.930  23.689  1.00  0.00    +0.000 C 
ATOM     14  C10 UNL A   1      32.547  28.845  24.633  1.00  0.00    +0.000 C 
ATOM    110  H15 UNL A   1      34.078  28.497  23.194  1.00  0.00    +0.000 H 
ATOM    111  H16 UNL A   1      31.498  28.787  24.431  1.00  0.00    +0.000 H 
ATOM     15  C11 UNL A   1      32.842  28.350  26.050  1.00  0.00    +0.000 C 
ATOM    112  H17 UNL A   1      32.841  29.866  24.509  1.00  0.00    +0.000 H 
ATOM    118  H23 UNL A   1      34.161  26.833  26.584  1.00  0.00    +0.000 H 
ATOM     24  C18 UNL A   1      33.429  26.931  25.811  1.00  0.00    +0.000 C 
ATOM     32  O4  UNL A   1      33.923  26.891  24.458  1.00  0.00    +0.000 O 
BRANCH   15   16
ATOM    113  H18 UNL A   1      31.219  29.118  26.909  1.00  0.00    +0.000 H 
ATOM     16  O3  UNL A   1      31.583  28.233  26.747  1.00  0.00    +0.000 O 
ENDBRANCH   15   16
BRANCH   15   17
ATOM     17  C12 UNL A   1      33.625  29.441  26.810  1.00  0.00    +0.000 C 
ATOM     18  C13 UNL A   1      34.891  29.033  27.322  1.00  0.00    +0.000 C 
ATOM     19  C14 UNL A   1      35.755  29.898  27.996  1.00  0.00    +0.000 C 
ATOM    114  H19 UNL A   1      35.184  28.051  27.188  1.00  0.00    +0.000 H 
ATOM     21  C16 UNL A   1      34.148  31.650  27.725  1.00  0.00    +0.000 C 
ATOM     22  C17 UNL A   1      33.255  30.771  27.082  1.00  0.00    +0.000 C 
ATOM     23 Cl1  UNL A   1      31.702  31.459  26.774  1.00  0.00    +0.000 Cl
ATOM    115  H20 UNL A   1      36.658  29.553  28.357  1.00  0.00    +0.000 H 
ATOM     20  C15 UNL A   1      35.393  31.220  28.175  1.00  0.00    +0.000 C 
ATOM    117  H22 UNL A   1      33.874  32.635  27.865  1.00  0.00    +0.000 H 
ATOM    116  H21 UNL A   1      36.037  31.881  28.638  1.00  0.00    +0.000 H 
ENDBRANCH   15   17
BRANCH   24   25
ATOM    122  H27 UNL A   1      32.688  22.386  26.648  1.00  0.00    +0.000 H 
ATOM    121  H26 UNL A   1      30.301  22.562  26.256  1.00  0.00    +0.000 H 
ATOM    119  H24 UNL A   1      30.716  26.696  25.670  1.00  0.00    +0.000 H 
ATOM    120  H25 UNL A   1      29.319  24.729  25.797  1.00  0.00    +0.000 H 
ATOM     25  C19 UNL A   1      32.545  25.701  26.024  1.00  0.00    +0.000 C 
ATOM     26  C20 UNL A   1      31.151  25.779  25.857  1.00  0.00    +0.000 C 
ATOM     27  C21 UNL A   1      30.338  24.644  25.940  1.00  0.00    +0.000 C 
ATOM     28  C22 UNL A   1      30.898  23.403  26.212  1.00  0.00    +0.000 C 
ATOM     29  C23 UNL A   1      32.269  23.302  26.425  1.00  0.00    +0.000 C 
ATOM     30  C24 UNL A   1      33.087  24.438  26.338  1.00  0.00    +0.000 C 
ATOM     31 Cl2  UNL A   1      34.771  24.188  26.657  1.00  0.00    +0.000 Cl
ENDBRANCH   24   25
ENDBRANCH   11   13
ENDBRANCH   10   11
ENDBRANCH    9   10
ENDBRANCH    8    9
ENDBRANCH    7    8
ENDBRANCH    6    7
ENDBRANCH    5    6
ENDBRANCH    4    5
ENDBRANCH    3    4
ENDBRANCH    2    3
ENDBRANCH   33    2
ENDBRANCH   37   36
BRANCH   41   42
ATOM     42  C33 UNL A   1      47.260  27.526  25.899  1.00  0.00    +0.000 C 
ATOM     43  C34 UNL A   1      47.407  27.704  24.517  1.00  0.00    +0.000 C 
ATOM     44  F1  UNL A   1      46.421  28.265  23.800  1.00  0.00    +0.000 F 
ATOM     45  C35 UNL A   1      48.566  27.297  23.862  1.00  0.00    +0.000 C 
ATOM     46  F2  UNL A   1      48.679  27.461  22.536  1.00  0.00    +0.000 F 
ATOM     47  C36 UNL A   1      49.608  26.725  24.579  1.00  0.00    +0.000 C 
ATOM     48  F3  UNL A   1      50.732  26.352  23.949  1.00  0.00    +0.000 F 
ATOM     49  C37 UNL A   1      49.485  26.541  25.947  1.00  0.00    +0.000 C 
ATOM     50  F4  UNL A   1      50.495  26.001  26.643  1.00  0.00    +0.000 F 
ATOM     51  C38 UNL A   1      48.318  26.928  26.600  1.00  0.00    +0.000 C 
ATOM     52  F5  UNL A   1      48.230  26.741  27.927  1.00  0.00    +0.000 F 
ENDBRANCH   41   42
BRANCH   58   59
ATOM     65  F8  UNL A   1      47.468  36.674  31.331  1.00  0.00    +0.000 F 
ATOM     66  C48 UNL A   1      46.152  35.583  29.702  1.00  0.00    +0.000 C 
ATOM     67  F9  UNL A   1      46.063  36.718  28.995  1.00  0.00    +0.000 F 
ATOM     68  C49 UNL A   1      45.512  34.432  29.250  1.00  0.00    +0.000 C 
ATOM     69  F10 UNL A   1      44.806  34.489  28.110  1.00  0.00    +0.000 F 
ATOM     59  C44 UNL A   1      45.606  33.229  29.963  1.00  0.00    +0.000 C 
ATOM     60  C45 UNL A   1      46.360  33.221  31.147  1.00  0.00    +0.000 C 
ATOM     61  F6  UNL A   1      46.461  32.099  31.875  1.00  0.00    +0.000 F 
ATOM     62  C46 UNL A   1      46.974  34.380  31.611  1.00  0.00    +0.000 C 
ATOM     63  F7  UNL A   1      47.647  34.363  32.769  1.00  0.00    +0.000 F 
ATOM     64  C47 UNL A   1      46.875  35.559  30.885  1.00  0.00    +0.000 C 
ENDBRANCH   58   59
BRANCH   73   74
ATOM     74  C53 UNL A   1      39.258  30.591  31.032  1.00  0.00    +0.000 C 
ATOM     75  C54 UNL A   1      38.312  31.484  30.515  1.00  0.00    +0.000 C 
ATOM     76  F11 UNL A   1      38.463  31.976  29.276  1.00  0.00    +0.000 F 
ATOM     77  C55 UNL A   1      37.227  31.906  31.283  1.00  0.00    +0.000 C 
ATOM     78  F12 UNL A   1      36.362  32.797  30.780  1.00  0.00    +0.000 F 
ATOM     79  C56 UNL A   1      37.053  31.418  32.569  1.00  0.00    +0.000 C 
ATOM     80  F13 UNL A   1      36.008  31.822  33.305  1.00  0.00    +0.000 F 
ATOM     81  C57 UNL A   1      37.967  30.518  33.095  1.00  0.00    +0.000 C 
ATOM     82  F14 UNL A   1      37.793  30.031  34.331  1.00  0.00    +0.000 F 
ATOM     83  C58 UNL A   1      39.066  30.120  32.340  1.00  0.00    +0.000 C 
ATOM     84  F15 UNL A   1      39.943  29.259  32.879  1.00  0.00    +0.000 F 
ENDBRANCH   73   74
TORSDOF 18
ENDMDL
MODEL 6
REMARK VINA RESULT:     -10.7      2.852      8.412
ROOT
ATOM    129  H34 UNL A   1      40.410  27.592  27.263  1.00  0.00    +0.000 H 
ATOM    130  H35 UNL A   1      40.748  29.192  31.085  1.00  0.00    +0.000 H 
ATOM    131  H36 UNL A   1      36.775  32.215  31.650  1.00  0.00    +0.000 H 
ATOM    132  H37 UNL A   1      37.670  32.728  33.992  1.00  0.00    +0.000 H 
ATOM    133  H38 UNL A   1      45.212  26.208  32.655  1.00  0.00    +0.000 H 
ATOM    134  H39 UNL A   1      44.485  25.871  30.221  1.00  0.00    +0.000 H 
ATOM     37  C29 UNL A   1      42.139  27.335  29.510  1.00  0.00    +0.000 C 
ATOM     38  C30 UNL A   1      42.871  27.345  30.820  1.00  0.00    +0.000 C 
ATOM     39  N3  UNL A   1      42.601  28.024  31.907  1.00  0.00    +0.000 N 
ATOM     40  C31 UNL A   1      43.565  27.659  32.837  1.00  0.00    +0.000 C 
ATOM     41  C32 UNL A   1      43.720  28.106  34.106  1.00  0.00    +0.000 C 
ATOM     53  C39 UNL A   1      42.879  29.095  34.729  1.00  0.00    +0.000 C 
ATOM     54  C40 UNL A   1      42.999  29.661  35.987  1.00  0.00    +0.000 C 
ATOM     55  C41 UNL A   1      41.923  30.533  36.182  1.00  0.00    +0.000 C 
ATOM     56  C42 UNL A   1      41.156  30.544  35.029  1.00  0.00    +0.000 C 
ATOM     57  N4  UNL A   1      41.755  29.661  34.144  1.00  0.00    +0.000 N 
ATOM     58  C43 UNL A   1      39.960  31.299  34.756  1.00  0.00    +0.000 C 
ATOM     70  C50 UNL A   1      39.295  31.304  33.576  1.00  0.00    +0.000 C 
ATOM     71  N5  UNL A   1      39.579  30.604  32.413  1.00  0.00    +0.000 N 
ATOM     72  C51 UNL A   1      38.628  30.914  31.567  1.00  0.00    +0.000 C 
ATOM     73  C52 UNL A   1      38.435  30.451  30.151  1.00  0.00    +0.000 C 
ATOM     85  C59 UNL A   1      39.318  29.587  29.622  1.00  0.00    +0.000 C 
ATOM     86  C60 UNL A   1      39.253  29.045  28.270  1.00  0.00    +0.000 C 
ATOM     87  C61 UNL A   1      40.241  28.154  28.112  1.00  0.00    +0.000 C 
ATOM     88  C62 UNL A   1      41.047  28.105  29.335  1.00  0.00    +0.000 C 
ATOM     89  N6  UNL A   1      40.428  28.996  30.174  1.00  0.00    +0.000 N 
ATOM     90  C63 UNL A   1      37.624  31.843  32.101  1.00  0.00    +0.000 C 
ATOM     91  C64 UNL A   1      38.098  32.078  33.316  1.00  0.00    +0.000 C 
ATOM     92  C65 UNL A   1      44.421  26.683  32.194  1.00  0.00    +0.000 C 
ATOM     93  C66 UNL A   1      44.054  26.478  30.934  1.00  0.00    +0.000 C 
ATOM    125  H30 UNL A   1      43.755  29.473  36.665  1.00  0.00    +0.000 H 
ATOM    126  H31 UNL A   1      41.732  31.075  37.040  1.00  0.00    +0.000 H 
ATOM    127  H32 UNL A   1      41.432  29.465  33.235  1.00  0.00    +0.000 H 
ATOM    128  H33 UNL A   1      38.558  29.304  27.552  1.00  0.00    +0.000 H 
ENDROOT
BRANCH   37   36
ATOM     33  C25 UNL A   1      43.568  24.802  26.365  1.00  0.00    +0.000 C 
ATOM     34  C26 UNL A   1      42.680  24.310  27.324  1.00  0.00    +0.000 C 
ATOM     35  C27 UNL A   1      42.149  25.166  28.285  1.00  0.00    +0.000 C 
ATOM     36  C28 UNL A   1      42.592  26.496  28.373  1.00  0.00    +0.000 C 
ATOM    135  H40 UNL A   1      43.882  27.938  27.516  1.00  0.00    +0.000 H 
ATOM    136  H41 UNL A   1      44.684  26.485  25.742  1.00  0.00    +0.000 H 
ATOM    123  H28 UNL A   1      42.418  23.311  27.321  1.00  0.00    +0.000 H 
ATOM    124  H29 UNL A   1      41.426  24.821  28.934  1.00  0.00    +0.000 H 
ATOM     94  C67 UNL A   1      43.535  26.968  27.449  1.00  0.00    +0.000 C 
ATOM     95  C68 UNL A   1      44.009  26.127  26.436  1.00  0.00    +0.000 C 
BRANCH   33    2
ATOM      1  O1  UNL A   1      45.013  24.311  24.586  1.00  0.00    +0.000 O 
ATOM      2  C1  UNL A   1      44.087  23.927  25.287  1.00  0.00    +0.000 C 
BRANCH    2    3
ATOM      3  N1  UNL A   1      43.516  22.695  25.071  1.00  0.00    +0.000 N 
ATOM     96  H1  UNL A   1      42.536  22.691  24.982  1.00  0.00    +0.000 H 
BRANCH    3    4
ATOM     97  H2  UNL A   1      45.146  21.468  25.363  1.00  0.00    +0.000 H 
ATOM     98  H3  UNL A   1      44.180  21.137  23.918  1.00  0.00    +0.000 H 
ATOM      4  C2  UNL A   1      44.160  21.398  24.955  1.00  0.00    +0.000 C 
BRANCH    4    5
ATOM     99  H4  UNL A   1      44.119  19.683  26.190  1.00  0.00    +0.000 H 
ATOM    100  H5  UNL A   1      42.832  19.786  24.950  1.00  0.00    +0.000 H 
ATOM      5  C3  UNL A   1      43.404  20.304  25.692  1.00  0.00    +0.000 C 
BRANCH    5    6
ATOM    102  H7  UNL A   1      42.898  20.713  27.676  1.00  0.00    +0.000 H 
ATOM    101  H6  UNL A   1      42.120  21.796  26.471  1.00  0.00    +0.000 H 
ATOM      6  C4  UNL A   1      42.399  20.797  26.734  1.00  0.00    +0.000 C 
BRANCH    6    7
ATOM    103  H8  UNL A   1      40.854  19.952  27.912  1.00  0.00    +0.000 H 
ATOM      7  C5  UNL A   1      41.114  19.973  26.874  1.00  0.00    +0.000 C 
ATOM    104  H9  UNL A   1      41.346  19.018  26.452  1.00  0.00    +0.000 H 
BRANCH    7    8
ATOM    105  H10 UNL A   1      39.020  20.019  26.533  1.00  0.00    +0.000 H 
ATOM    106  H11 UNL A   1      40.058  20.196  25.079  1.00  0.00    +0.000 H 
ATOM      8  C6  UNL A   1      39.887  20.471  26.098  1.00  0.00    +0.000 C 
BRANCH    8    9
ATOM      9  C7  UNL A   1      39.673  21.983  26.089  1.00  0.00    +0.000 C 
ATOM    107  H12 UNL A   1      39.995  22.368  25.144  1.00  0.00    +0.000 H 
ATOM    108  H13 UNL A   1      40.240  22.391  26.901  1.00  0.00    +0.000 H 
BRANCH    9   10
ATOM     10  N2  UNL A   1      38.294  22.359  26.294  1.00  0.00    +0.000 N 
ATOM    109  H14 UNL A   1      37.979  22.343  27.227  1.00  0.00    +0.000 H 
BRANCH   10   11
ATOM     11  C8  UNL A   1      37.369  22.734  25.365  1.00  0.00    +0.000 C 
ATOM     12  O2  UNL A   1      37.516  22.310  24.217  1.00  0.00    +0.000 O 
BRANCH   11   13
ATOM     13  C9  UNL A   1      36.215  23.676  25.777  1.00  0.00    +0.000 C 
ATOM     14  C10 UNL A   1      35.547  24.329  24.574  1.00  0.00    +0.000 C 
ATOM    110  H15 UNL A   1      36.667  24.436  26.382  1.00  0.00    +0.000 H 
ATOM    111  H16 UNL A   1      35.896  23.880  23.668  1.00  0.00    +0.000 H 
ATOM     15  C11 UNL A   1      34.044  24.096  24.735  1.00  0.00    +0.000 C 
ATOM    112  H17 UNL A   1      35.775  25.373  24.522  1.00  0.00    +0.000 H 
ATOM    118  H23 UNL A   1      33.094  23.208  26.359  1.00  0.00    +0.000 H 
ATOM     24  C18 UNL A   1      33.977  22.969  25.804  1.00  0.00    +0.000 C 
ATOM     32  O4  UNL A   1      35.216  22.996  26.537  1.00  0.00    +0.000 O 
BRANCH   15   16
ATOM    113  H18 UNL A   1      33.219  24.334  22.940  1.00  0.00    +0.000 H 
ATOM     16  O3  UNL A   1      33.537  23.593  23.480  1.00  0.00    +0.000 O 
ENDBRANCH   15   16
BRANCH   15   17
ATOM     17  C12 UNL A   1      33.343  25.456  24.937  1.00  0.00    +0.000 C 
ATOM     18  C13 UNL A   1      32.699  25.625  26.197  1.00  0.00    +0.000 C 
ATOM     19  C14 UNL A   1      32.054  26.806  26.571  1.00  0.00    +0.000 C 
ATOM    114  H19 UNL A   1      32.708  24.838  26.865  1.00  0.00    +0.000 H 
ATOM     21  C16 UNL A   1      32.626  27.745  24.445  1.00  0.00    +0.000 C 
ATOM     22  C17 UNL A   1      33.239  26.540  24.046  1.00  0.00    +0.000 C 
ATOM     23 Cl1  UNL A   1      33.733  26.526  22.392  1.00  0.00    +0.000 Cl
ATOM    115  H20 UNL A   1      31.592  26.877  27.490  1.00  0.00    +0.000 H 
ATOM     20  C15 UNL A   1      32.041  27.881  25.700  1.00  0.00    +0.000 C 
ATOM    117  H22 UNL A   1      32.609  28.543  23.792  1.00  0.00    +0.000 H 
ATOM    116  H21 UNL A   1      31.602  28.773  25.977  1.00  0.00    +0.000 H 
ENDBRANCH   15   17
BRANCH   24   25
ATOM    122  H27 UNL A   1      31.257  19.250  24.986  1.00  0.00    +0.000 H 
ATOM    121  H26 UNL A   1      33.145  17.793  24.548  1.00  0.00    +0.000 H 
ATOM    119  H24 UNL A   1      35.751  21.045  25.040  1.00  0.00    +0.000 H 
ATOM    120  H25 UNL A   1      35.390  18.707  24.548  1.00  0.00    +0.000 H 
ATOM     25  C19 UNL A   1      33.720  21.527  25.366  1.00  0.00    +0.000 C 
ATOM     26  C20 UNL A   1      34.790  20.669  25.053  1.00  0.00    +0.000 C 
ATOM     27  C21 UNL A   1      34.584  19.317  24.758  1.00  0.00    +0.000 C 
ATOM     28  C22 UNL A   1      33.298  18.794  24.748  1.00  0.00    +0.000 C 
ATOM     29  C23 UNL A   1      32.216  19.629  25.012  1.00  0.00    +0.000 C 
ATOM     30  C24 UNL A   1      32.420  20.983  25.312  1.00  0.00    +0.000 C 
ATOM     31 Cl2  UNL A   1      30.993  21.924  25.588  1.00  0.00    +0.000 Cl
ENDBRANCH   24   25
ENDBRANCH   11   13
ENDBRANCH   10   11
ENDBRANCH    9   10
ENDBRANCH    8    9
ENDBRANCH    7    8
ENDBRANCH    6    7
ENDBRANCH    5    6
ENDBRANCH    4    5
ENDBRANCH    3    4
ENDBRANCH    2    3
ENDBRANCH   33    2
ENDBRANCH   37   36
BRANCH   41   42
ATOM     42  C33 UNL A   1      44.837  27.531  34.927  1.00  0.00    +0.000 C 
ATOM     43  C34 UNL A   1      44.665  26.368  35.690  1.00  0.00    +0.000 C 
ATOM     44  F1  UNL A   1      43.456  25.793  35.782  1.00  0.00    +0.000 F 
ATOM     45  C35 UNL A   1      45.735  25.793  36.371  1.00  0.00    +0.000 C 
ATOM     46  F2  UNL A   1      45.545  24.690  37.109  1.00  0.00    +0.000 F 
ATOM     47  C36 UNL A   1      47.000  26.358  36.285  1.00  0.00    +0.000 C 
ATOM     48  F3  UNL A   1      48.034  25.791  36.924  1.00  0.00    +0.000 F 
ATOM     49  C37 UNL A   1      47.193  27.507  35.534  1.00  0.00    +0.000 C 
ATOM     50  F4  UNL A   1      48.417  28.046  35.439  1.00  0.00    +0.000 F 
ATOM     51  C38 UNL A   1      46.120  28.095  34.871  1.00  0.00    +0.000 C 
ATOM     52  F5  UNL A   1      46.339  29.205  34.148  1.00  0.00    +0.000 F 
ENDBRANCH   41   42
BRANCH   58   59
ATOM     65  F8  UNL A   1      37.904  34.575  38.870  1.00  0.00    +0.000 F 
ATOM     66  C48 UNL A   1      39.364  34.284  37.036  1.00  0.00    +0.000 C 
ATOM     67  F9  UNL A   1      39.819  35.536  37.184  1.00  0.00    +0.000 F 
ATOM     68  C49 UNL A   1      39.858  33.482  36.011  1.00  0.00    +0.000 C 
ATOM     69  F10 UNL A   1      40.781  33.990  35.180  1.00  0.00    +0.000 F 
ATOM     59  C44 UNL A   1      39.408  32.165  35.848  1.00  0.00    +0.000 C 
ATOM     60  C45 UNL A   1      38.445  31.680  36.746  1.00  0.00    +0.000 C 
ATOM     61  F6  UNL A   1      37.970  30.432  36.617  1.00  0.00    +0.000 F 
ATOM     62  C46 UNL A   1      37.932  32.494  37.751  1.00  0.00    +0.000 C 
ATOM     63  F7  UNL A   1      36.976  32.027  38.566  1.00  0.00    +0.000 F 
ATOM     64  C47 UNL A   1      38.397  33.793  37.900  1.00  0.00    +0.000 C 
ENDBRANCH   58   59
BRANCH   73   74
ATOM     74  C53 UNL A   1      37.278  30.917  29.343  1.00  0.00    +0.000 C 
ATOM     75  C54 UNL A   1      37.247  32.209  28.804  1.00  0.00    +0.000 C 
ATOM     76  F11 UNL A   1      38.264  33.054  29.029  1.00  0.00    +0.000 F 
ATOM     77  C55 UNL A   1      36.151  32.651  28.064  1.00  0.00    +0.000 C 
ATOM     78  F12 UNL A   1      36.125  33.907  27.598  1.00  0.00    +0.000 F 
ATOM     79  C56 UNL A   1      35.084  31.800  27.823  1.00  0.00    +0.000 C 
ATOM     80  F13 UNL A   1      34.033  32.225  27.109  1.00  0.00    +0.000 F 
ATOM     81  C57 UNL A   1      35.102  30.510  28.331  1.00  0.00    +0.000 C 
ATOM     82  F14 UNL A   1      34.080  29.679  28.088  1.00  0.00    +0.000 F 
ATOM     83  C58 UNL A   1      36.182  30.078  29.097  1.00  0.00    +0.000 C 
ATOM     84  F15 UNL A   1      36.167  28.829  29.588  1.00  0.00    +0.000 F 
ENDBRANCH   73   74
TORSDOF 18
ENDMDL
MODEL 7
REMARK VINA RESULT:     -10.5     37.679     43.236
ROOT
ATOM    129  H34 UNL A   1      12.165  52.695   6.935  1.00  0.00    +0.000 H 
ATOM    130  H35 UNL A   1      14.491  51.651   3.651  1.00  0.00    +0.000 H 
ATOM    131  H36 UNL A   1      13.537  46.792   2.797  1.00  0.00    +0.000 H 
ATOM    132  H37 UNL A   1      15.190  46.950   0.849  1.00  0.00    +0.000 H 
ATOM    133  H38 UNL A   1      16.452  56.780   2.577  1.00  0.00    +0.000 H 
ATOM    134  H39 UNL A   1      15.004  56.593   4.682  1.00  0.00    +0.000 H 
ATOM     37  C29 UNL A   1      13.943  53.977   5.118  1.00  0.00    +0.000 C 
ATOM     38  C30 UNL A   1      14.872  54.427   4.028  1.00  0.00    +0.000 C 
ATOM     39  N3  UNL A   1      15.398  53.724   3.055  1.00  0.00    +0.000 N 
ATOM     40  C31 UNL A   1      16.161  54.613   2.310  1.00  0.00    +0.000 C 
ATOM     41  C32 UNL A   1      16.914  54.359   1.213  1.00  0.00    +0.000 C 
ATOM     53  C39 UNL A   1      17.069  53.057   0.616  1.00  0.00    +0.000 C 
ATOM     54  C40 UNL A   1      17.865  52.689  -0.456  1.00  0.00    +0.000 C 
ATOM     55  C41 UNL A   1      17.651  51.331  -0.717  1.00  0.00    +0.000 C 
ATOM     56  C42 UNL A   1      16.754  50.843   0.219  1.00  0.00    +0.000 C 
ATOM     57  N4  UNL A   1      16.409  51.911   1.033  1.00  0.00    +0.000 N 
ATOM     58  C43 UNL A   1      16.245  49.503   0.357  1.00  0.00    +0.000 C 
ATOM     70  C50 UNL A   1      15.412  49.084   1.340  1.00  0.00    +0.000 C 
ATOM     71  N5  UNL A   1      14.863  49.812   2.385  1.00  0.00    +0.000 N 
ATOM     72  C51 UNL A   1      14.101  48.974   3.043  1.00  0.00    +0.000 C 
ATOM     73  C52 UNL A   1      13.267  49.216   4.268  1.00  0.00    +0.000 C 
ATOM     85  C59 UNL A   1      13.245  50.448   4.809  1.00  0.00    +0.000 C 
ATOM     86  C60 UNL A   1      12.478  50.832   5.987  1.00  0.00    +0.000 C 
ATOM     87  C61 UNL A   1      12.627  52.149   6.190  1.00  0.00    +0.000 C 
ATOM     88  C62 UNL A   1      13.549  52.690   5.188  1.00  0.00    +0.000 C 
ATOM     89  N6  UNL A   1      13.871  51.605   4.415  1.00  0.00    +0.000 N 
ATOM     90  C63 UNL A   1      14.072  47.617   2.483  1.00  0.00    +0.000 C 
ATOM     91  C64 UNL A   1      14.918  47.729   1.469  1.00  0.00    +0.000 C 
ATOM     92  C65 UNL A   1      16.019  55.913   2.932  1.00  0.00    +0.000 C 
ATOM     93  C66 UNL A   1      15.259  55.846   4.018  1.00  0.00    +0.000 C 
ATOM    125  H30 UNL A   1      18.508  53.310  -0.973  1.00  0.00    +0.000 H 
ATOM    126  H31 UNL A   1      18.085  50.787  -1.479  1.00  0.00    +0.000 H 
ATOM    127  H32 UNL A   1      15.786  51.862   1.795  1.00  0.00    +0.000 H 
ATOM    128  H33 UNL A   1      11.912  50.196   6.569  1.00  0.00    +0.000 H 
ENDROOT
BRANCH   37   36
ATOM     33  C25 UNL A   1      12.544  56.858   7.962  1.00  0.00    +0.000 C 
ATOM     34  C26 UNL A   1      11.813  56.594   6.801  1.00  0.00    +0.000 C 
ATOM     35  C27 UNL A   1      12.228  55.590   5.932  1.00  0.00    +0.000 C 
ATOM     36  C28 UNL A   1      13.443  54.919   6.149  1.00  0.00    +0.000 C 
ATOM    135  H40 UNL A   1      15.111  54.763   7.441  1.00  0.00    +0.000 H 
ATOM    136  H41 UNL A   1      14.303  56.402   9.041  1.00  0.00    +0.000 H 
ATOM    123  H28 UNL A   1      10.966  57.144   6.588  1.00  0.00    +0.000 H 
ATOM    124  H29 UNL A   1      11.639  55.336   5.124  1.00  0.00    +0.000 H 
ATOM     94  C67 UNL A   1      14.208  55.235   7.281  1.00  0.00    +0.000 C 
ATOM     95  C68 UNL A   1      13.750  56.190   8.196  1.00  0.00    +0.000 C 
BRANCH   33    2
ATOM      1  O1  UNL A   1      12.505  59.016   8.877  1.00  0.00    +0.000 O 
ATOM      2  C1  UNL A   1      12.080  57.870   8.941  1.00  0.00    +0.000 C 
BRANCH    2    3
ATOM      3  N1  UNL A   1      11.186  57.514   9.923  1.00  0.00    +0.000 N 
ATOM     96  H1  UNL A   1      11.558  56.985  10.664  1.00  0.00    +0.000 H 
BRANCH    3    4
ATOM     97  H2  UNL A   1       9.367  57.888   9.029  1.00  0.00    +0.000 H 
ATOM     98  H3  UNL A   1       9.663  58.729  10.558  1.00  0.00    +0.000 H 
ATOM      4  C2  UNL A   1       9.767  57.811  10.018  1.00  0.00    +0.000 C 
BRANCH    4    5
ATOM     99  H4  UNL A   1       8.188  56.413  10.155  1.00  0.00    +0.000 H 
ATOM    100  H5  UNL A   1       8.677  57.195  11.690  1.00  0.00    +0.000 H 
ATOM      5  C3  UNL A   1       8.996  56.741  10.775  1.00  0.00    +0.000 C 
BRANCH    5    6
ATOM    102  H7  UNL A   1      10.833  55.769  10.978  1.00  0.00    +0.000 H 
ATOM    101  H6  UNL A   1       9.603  55.300  12.202  1.00  0.00    +0.000 H 
ATOM      6  C4  UNL A   1       9.814  55.512  11.175  1.00  0.00    +0.000 C 
BRANCH    6    7
ATOM    103  H8  UNL A   1       8.569  54.314   9.948  1.00  0.00    +0.000 H 
ATOM      7  C5  UNL A   1       9.550  54.235  10.370  1.00  0.00    +0.000 C 
ATOM    104  H9  UNL A   1       9.673  53.433  11.067  1.00  0.00    +0.000 H 
BRANCH    7    8
ATOM    105  H10 UNL A   1      10.585  54.799   8.605  1.00  0.00    +0.000 H 
ATOM    106  H11 UNL A   1      10.126  53.068   8.729  1.00  0.00    +0.000 H 
ATOM      8  C6  UNL A   1      10.524  53.928   9.224  1.00  0.00    +0.000 C 
BRANCH    8    9
ATOM      9  C7  UNL A   1      11.943  53.548   9.640  1.00  0.00    +0.000 C 
ATOM    107  H12 UNL A   1      12.487  54.444   9.858  1.00  0.00    +0.000 H 
ATOM    108  H13 UNL A   1      12.379  53.005   8.827  1.00  0.00    +0.000 H 
BRANCH    9   10
ATOM     10  N2  UNL A   1      11.980  52.691  10.802  1.00  0.00    +0.000 N 
ATOM    109  H14 UNL A   1      11.122  52.284  11.062  1.00  0.00    +0.000 H 
BRANCH   10   11
ATOM     11  C8  UNL A   1      13.049  52.371  11.586  1.00  0.00    +0.000 C 
ATOM     12  O2  UNL A   1      13.824  53.282  11.886  1.00  0.00    +0.000 O 
BRANCH   11   13
ATOM     13  C9  UNL A   1      13.252  50.906  12.034  1.00  0.00    +0.000 C 
ATOM     14  C10 UNL A   1      12.270  49.957  11.360  1.00  0.00    +0.000 C 
ATOM    110  H15 UNL A   1      13.075  50.901  13.090  1.00  0.00    +0.000 H 
ATOM    111  H16 UNL A   1      11.741  50.464  10.581  1.00  0.00    +0.000 H 
ATOM     15  C11 UNL A   1      13.105  48.815  10.777  1.00  0.00    +0.000 C 
ATOM    112  H17 UNL A   1      11.544  49.591  12.055  1.00  0.00    +0.000 H 
ATOM    118  H23 UNL A   1      15.154  48.535  11.005  1.00  0.00    +0.000 H 
ATOM     24  C18 UNL A   1      14.548  49.391  10.795  1.00  0.00    +0.000 C 
ATOM     32  O4  UNL A   1      14.579  50.448  11.774  1.00  0.00    +0.000 O 
BRANCH   15   16
ATOM    113  H18 UNL A   1      12.434  47.689   9.279  1.00  0.00    +0.000 H 
ATOM     16  O3  UNL A   1      12.688  48.616   9.409  1.00  0.00    +0.000 O 
ENDBRANCH   15   16
BRANCH   15   17
ATOM     17  C12 UNL A   1      12.740  47.503  11.504  1.00  0.00    +0.000 C 
ATOM     18  C13 UNL A   1      12.481  46.390  10.653  1.00  0.00    +0.000 C 
ATOM     19  C14 UNL A   1      12.181  45.115  11.136  1.00  0.00    +0.000 C 
ATOM    114  H19 UNL A   1      12.517  46.533   9.631  1.00  0.00    +0.000 H 
ATOM     21  C16 UNL A   1      12.351  45.964  13.367  1.00  0.00    +0.000 C 
ATOM     22  C17 UNL A   1      12.611  47.262  12.884  1.00  0.00    +0.000 C 
ATOM     23 Cl1  UNL A   1      12.654  48.467  14.119  1.00  0.00    +0.000 Cl
ATOM    115  H20 UNL A   1      11.990  44.342  10.480  1.00  0.00    +0.000 H 
ATOM     20  C15 UNL A   1      12.141  44.895  12.501  1.00  0.00    +0.000 C 
ATOM    117  H22 UNL A   1      12.314  45.802  14.385  1.00  0.00    +0.000 H 
ATOM    116  H21 UNL A   1      11.959  43.949  12.873  1.00  0.00    +0.000 H 
ENDBRANCH   15   17
BRANCH   24   25
ATOM    122  H27 UNL A   1      17.172  49.057   6.934  1.00  0.00    +0.000 H 
ATOM    121  H26 UNL A   1      16.944  51.413   6.409  1.00  0.00    +0.000 H 
ATOM    119  H24 UNL A   1      14.401  51.889   9.712  1.00  0.00    +0.000 H 
ATOM    120  H25 UNL A   1      15.531  52.817   7.788  1.00  0.00    +0.000 H 
ATOM     25  C19 UNL A   1      15.163  49.930   9.503  1.00  0.00    +0.000 C 
ATOM     26  C20 UNL A   1      15.007  51.280   9.139  1.00  0.00    +0.000 C 
ATOM     27  C21 UNL A   1      15.651  51.818   8.021  1.00  0.00    +0.000 C 
ATOM     28  C22 UNL A   1      16.454  51.013   7.224  1.00  0.00    +0.000 C 
ATOM     29  C23 UNL A   1      16.593  49.664   7.534  1.00  0.00    +0.000 C 
ATOM     30  C24 UNL A   1      15.951  49.123   8.657  1.00  0.00    +0.000 C 
ATOM     31 Cl2  UNL A   1      16.175  47.425   8.916  1.00  0.00    +0.000 Cl
ENDBRANCH   24   25
ENDBRANCH   11   13
ENDBRANCH   10   11
ENDBRANCH    9   10
ENDBRANCH    8    9
ENDBRANCH    7    8
ENDBRANCH    6    7
ENDBRANCH    5    6
ENDBRANCH    4    5
ENDBRANCH    3    4
ENDBRANCH    2    3
ENDBRANCH   33    2
ENDBRANCH   37   36
BRANCH   41   42
ATOM     42  C33 UNL A   1      17.633  55.506   0.566  1.00  0.00    +0.000 C 
ATOM     43  C34 UNL A   1      17.039  56.265  -0.452  1.00  0.00    +0.000 C 
ATOM     44  F1  UNL A   1      15.841  55.915  -0.944  1.00  0.00    +0.000 F 
ATOM     45  C35 UNL A   1      17.679  57.385  -0.976  1.00  0.00    +0.000 C 
ATOM     46  F2  UNL A   1      17.102  58.087  -1.961  1.00  0.00    +0.000 F 
ATOM     47  C36 UNL A   1      18.914  57.780  -0.478  1.00  0.00    +0.000 C 
ATOM     48  F3  UNL A   1      19.519  58.870  -0.970  1.00  0.00    +0.000 F 
ATOM     49  C37 UNL A   1      19.518  57.044   0.530  1.00  0.00    +0.000 C 
ATOM     50  F4  UNL A   1      20.704  57.431   1.021  1.00  0.00    +0.000 F 
ATOM     51  C38 UNL A   1      18.889  55.912   1.040  1.00  0.00    +0.000 C 
ATOM     52  F5  UNL A   1      19.497  55.223   2.019  1.00  0.00    +0.000 F 
ENDBRANCH   41   42
BRANCH   58   59
ATOM     65  F8  UNL A   1      17.841  45.636  -3.436  1.00  0.00    +0.000 F 
ATOM     66  C48 UNL A   1      16.246  47.202  -2.671  1.00  0.00    +0.000 C 
ATOM     67  F9  UNL A   1      15.445  46.910  -3.705  1.00  0.00    +0.000 F 
ATOM     68  C49 UNL A   1      15.861  48.168  -1.746  1.00  0.00    +0.000 C 
ATOM     69  F10 UNL A   1      14.689  48.798  -1.917  1.00  0.00    +0.000 F 
ATOM     59  C44 UNL A   1      16.676  48.478  -0.648  1.00  0.00    +0.000 C 
ATOM     60  C45 UNL A   1      17.890  47.788  -0.511  1.00  0.00    +0.000 C 
ATOM     61  F6  UNL A   1      18.713  48.065   0.512  1.00  0.00    +0.000 F 
ATOM     62  C46 UNL A   1      18.285  46.844  -1.454  1.00  0.00    +0.000 C 
ATOM     63  F7  UNL A   1      19.472  46.234  -1.332  1.00  0.00    +0.000 F 
ATOM     64  C47 UNL A   1      17.461  46.547  -2.530  1.00  0.00    +0.000 C 
ENDBRANCH   58   59
BRANCH   73   74
ATOM     74  C53 UNL A   1      12.457  48.128   4.873  1.00  0.00    +0.000 C 
ATOM     75  C54 UNL A   1      12.956  47.357   5.931  1.00  0.00    +0.000 C 
ATOM     76  F11 UNL A   1      14.191  47.585   6.401  1.00  0.00    +0.000 F 
ATOM     77  C55 UNL A   1      12.202  46.322   6.482  1.00  0.00    +0.000 C 
ATOM     78  F12 UNL A   1      12.721  45.570   7.462  1.00  0.00    +0.000 F 
ATOM     79  C56 UNL A   1      10.926  46.061   6.009  1.00  0.00    +0.000 C 
ATOM     80  F13 UNL A   1      10.201  45.068   6.543  1.00  0.00    +0.000 F 
ATOM     81  C57 UNL A   1      10.404  46.824   4.975  1.00  0.00    +0.000 C 
ATOM     82  F14 UNL A   1       9.165  46.586   4.526  1.00  0.00    +0.000 F 
ATOM     83  C58 UNL A   1      11.168  47.837   4.403  1.00  0.00    +0.000 C 
ATOM     84  F15 UNL A   1      10.644  48.551   3.395  1.00  0.00    +0.000 F 
ENDBRANCH   73   74
TORSDOF 18
ENDMDL
MODEL 8
REMARK VINA RESULT:     -10.5     20.170     26.176
ROOT
ATOM    129  H34 UNL A   1      50.660  21.567  12.386  1.00  0.00    +0.000 H 
ATOM    130  H35 UNL A   1      54.496  20.765  13.774  1.00  0.00    +0.000 H 
ATOM    131  H36 UNL A   1      54.604  22.429  18.514  1.00  0.00    +0.000 H 
ATOM    132  H37 UNL A   1      57.038  21.639  18.592  1.00  0.00    +0.000 H 
ATOM    133  H38 UNL A   1      56.266  17.992   9.248  1.00  0.00    +0.000 H 
ATOM    134  H39 UNL A   1      53.917  18.997   9.053  1.00  0.00    +0.000 H 
ATOM     37  C29 UNL A   1      53.027  20.305  11.431  1.00  0.00    +0.000 C 
ATOM     38  C30 UNL A   1      54.360  19.665  11.173  1.00  0.00    +0.000 C 
ATOM     39  N3  UNL A   1      55.396  19.575  11.970  1.00  0.00    +0.000 N 
ATOM     40  C31 UNL A   1      56.362  18.873  11.265  1.00  0.00    +0.000 C 
ATOM     41  C32 UNL A   1      57.616  18.542  11.659  1.00  0.00    +0.000 C 
ATOM     53  C39 UNL A   1      58.188  18.897  12.932  1.00  0.00    +0.000 C 
ATOM     54  C40 UNL A   1      59.473  18.665  13.394  1.00  0.00    +0.000 C 
ATOM     55  C41 UNL A   1      59.559  19.136  14.709  1.00  0.00    +0.000 C 
ATOM     56  C42 UNL A   1      58.342  19.700  15.051  1.00  0.00    +0.000 C 
ATOM     57  N4  UNL A   1      57.511  19.550  13.951  1.00  0.00    +0.000 N 
ATOM     58  C43 UNL A   1      57.961  20.323  16.292  1.00  0.00    +0.000 C 
ATOM     70  C50 UNL A   1      56.763  20.909  16.534  1.00  0.00    +0.000 C 
ATOM     71  N5  UNL A   1      55.666  21.026  15.694  1.00  0.00    +0.000 N 
ATOM     72  C51 UNL A   1      54.744  21.640  16.394  1.00  0.00    +0.000 C 
ATOM     73  C52 UNL A   1      53.354  22.035  15.985  1.00  0.00    +0.000 C 
ATOM     85  C59 UNL A   1      52.929  21.735  14.745  1.00  0.00    +0.000 C 
ATOM     86  C60 UNL A   1      51.607  22.046  14.214  1.00  0.00    +0.000 C 
ATOM     87  C61 UNL A   1      51.503  21.528  12.982  1.00  0.00    +0.000 C 
ATOM     88  C62 UNL A   1      52.774  20.899  12.613  1.00  0.00    +0.000 C 
ATOM     89  N6  UNL A   1      53.564  21.078  13.720  1.00  0.00    +0.000 N 
ATOM     90  C63 UNL A   1      55.150  21.974  17.765  1.00  0.00    +0.000 C 
ATOM     91  C64 UNL A   1      56.401  21.541  17.786  1.00  0.00    +0.000 C 
ATOM     92  C65 UNL A   1      55.786  18.542   9.978  1.00  0.00    +0.000 C 
ATOM     93  C66 UNL A   1      54.561  19.039   9.858  1.00  0.00    +0.000 C 
ATOM    125  H30 UNL A   1      60.237  18.222  12.859  1.00  0.00    +0.000 H 
ATOM    126  H31 UNL A   1      60.388  19.072  15.320  1.00  0.00    +0.000 H 
ATOM    127  H32 UNL A   1      56.578  19.861  13.900  1.00  0.00    +0.000 H 
ATOM    128  H33 UNL A   1      50.872  22.576  14.707  1.00  0.00    +0.000 H 
ENDROOT
BRANCH   37   36
ATOM     33  C25 UNL A   1      49.845  20.487   8.569  1.00  0.00    +0.000 C 
ATOM     34  C26 UNL A   1      50.768  21.530   8.670  1.00  0.00    +0.000 C 
ATOM     35  C27 UNL A   1      51.851  21.418   9.537  1.00  0.00    +0.000 C 
ATOM     36  C28 UNL A   1      51.958  20.315  10.400  1.00  0.00    +0.000 C 
ATOM    135  H40 UNL A   1      51.049  18.496  10.985  1.00  0.00    +0.000 H 
ATOM    136  H41 UNL A   1      49.249  18.619   9.358  1.00  0.00    +0.000 H 
ATOM    123  H28 UNL A   1      50.647  22.384   8.103  1.00  0.00    +0.000 H 
ATOM    124  H29 UNL A   1      52.579  22.148   9.544  1.00  0.00    +0.000 H 
ATOM     94  C67 UNL A   1      50.991  19.302  10.343  1.00  0.00    +0.000 C 
ATOM     95  C68 UNL A   1      49.945  19.379   9.416  1.00  0.00    +0.000 C 
BRANCH   33    2
ATOM      1  O1  UNL A   1      48.276  21.638   7.261  1.00  0.00    +0.000 O 
ATOM      2  C1  UNL A   1      48.726  20.552   7.598  1.00  0.00    +0.000 C 
BRANCH    2    3
ATOM      3  N1  UNL A   1      48.190  19.391   7.092  1.00  0.00    +0.000 N 
ATOM     96  H1  UNL A   1      47.800  18.779   7.756  1.00  0.00    +0.000 H 
BRANCH    3    4
ATOM     97  H2  UNL A   1      48.644  18.013   5.627  1.00  0.00    +0.000 H 
ATOM     98  H3  UNL A   1      48.565  19.701   5.102  1.00  0.00    +0.000 H 
ATOM      4  C2  UNL A   1      48.121  18.943   5.712  1.00  0.00    +0.000 C 
BRANCH    4    5
ATOM     99  H4  UNL A   1      46.086  18.511   6.086  1.00  0.00    +0.000 H 
ATOM    100  H5  UNL A   1      46.727  17.959   4.508  1.00  0.00    +0.000 H 
ATOM      5  C3  UNL A   1      46.691  18.744   5.234  1.00  0.00    +0.000 C 
BRANCH    5    6
ATOM    102  H7  UNL A   1      45.351  20.345   5.215  1.00  0.00    +0.000 H 
ATOM    101  H6  UNL A   1      46.859  20.623   4.276  1.00  0.00    +0.000 H 
ATOM      6  C4  UNL A   1      46.068  19.948   4.527  1.00  0.00    +0.000 C 
BRANCH    6    7
ATOM    103  H8  UNL A   1      44.531  18.927   3.488  1.00  0.00    +0.000 H 
ATOM      7  C5  UNL A   1      45.285  19.646   3.245  1.00  0.00    +0.000 C 
ATOM    104  H9  UNL A   1      46.017  19.306   2.543  1.00  0.00    +0.000 H 
BRANCH    7    8
ATOM    105  H10 UNL A   1      45.309  21.625   2.479  1.00  0.00    +0.000 H 
ATOM    106  H11 UNL A   1      43.751  21.071   3.181  1.00  0.00    +0.000 H 
ATOM      8  C6  UNL A   1      44.592  20.834   2.564  1.00  0.00    +0.000 C 
BRANCH    8    9
ATOM      9  C7  UNL A   1      44.023  20.565   1.173  1.00  0.00    +0.000 C 
ATOM    107  H12 UNL A   1      44.086  19.516   0.975  1.00  0.00    +0.000 H 
ATOM    108  H13 UNL A   1      44.600  21.139   0.476  1.00  0.00    +0.000 H 
BRANCH    9   10
ATOM     10  N2  UNL A   1      42.646  20.979   1.037  1.00  0.00    +0.000 N 
ATOM    109  H14 UNL A   1      42.297  21.550   1.759  1.00  0.00    +0.000 H 
BRANCH   10   11
ATOM     11  C8  UNL A   1      41.766  20.682   0.039  1.00  0.00    +0.000 C 
ATOM     12  O2  UNL A   1      42.016  19.702  -0.665  1.00  0.00    +0.000 O 
BRANCH   11   13
ATOM     13  C9  UNL A   1      40.530  21.585  -0.179  1.00  0.00    +0.000 C 
ATOM     14  C10 UNL A   1      39.497  20.937  -1.091  1.00  0.00    +0.000 C 
ATOM    110  H15 UNL A   1      40.903  22.474  -0.647  1.00  0.00    +0.000 H 
ATOM    111  H16 UNL A   1      39.750  19.914  -1.269  1.00  0.00    +0.000 H 
ATOM     15  C11 UNL A   1      38.156  21.031  -0.360  1.00  0.00    +0.000 C 
ATOM    112  H17 UNL A   1      39.456  21.427  -2.041  1.00  0.00    +0.000 H 
ATOM    118  H23 UNL A   1      37.794  21.998   1.446  1.00  0.00    +0.000 H 
ATOM     24  C18 UNL A   1      38.576  21.355   1.101  1.00  0.00    +0.000 C 
ATOM     32  O4  UNL A   1      39.897  21.928   1.054  1.00  0.00    +0.000 O 
BRANCH   15   16
ATOM    113  H18 UNL A   1      37.023  19.637  -1.217  1.00  0.00    +0.000 H 
ATOM     16  O3  UNL A   1      37.539  19.727  -0.400  1.00  0.00    +0.000 O 
ENDBRANCH   15   16
BRANCH   15   17
ATOM     17  C12 UNL A   1      37.210  21.950  -1.160  1.00  0.00    +0.000 C 
ATOM     18  C13 UNL A   1      36.144  22.526  -0.409  1.00  0.00    +0.000 C 
ATOM     19  C14 UNL A   1      35.219  23.416  -0.958  1.00  0.00    +0.000 C 
ATOM    114  H19 UNL A   1      36.051  22.272   0.588  1.00  0.00    +0.000 H 
ATOM     21  C16 UNL A   1      36.335  23.214  -3.065  1.00  0.00    +0.000 C 
ATOM     22  C17 UNL A   1      37.244  22.282  -2.527  1.00  0.00    +0.000 C 
ATOM     23 Cl1  UNL A   1      38.283  21.565  -3.704  1.00  0.00    +0.000 Cl
ATOM    115  H20 UNL A   1      34.458  23.799  -0.376  1.00  0.00    +0.000 H 
ATOM     20  C15 UNL A   1      35.331  23.783  -2.286  1.00  0.00    +0.000 C 
ATOM    117  H22 UNL A   1      36.414  23.481  -4.059  1.00  0.00    +0.000 H 
ATOM    116  H21 UNL A   1      34.678  24.469  -2.696  1.00  0.00    +0.000 H 
ENDBRANCH   15   17
BRANCH   24   25
ATOM    122  H27 UNL A   1      36.661  18.778   4.507  1.00  0.00    +0.000 H 
ATOM    121  H26 UNL A   1      38.740  17.629   4.995  1.00  0.00    +0.000 H 
ATOM    119  H24 UNL A   1      40.601  19.688   1.848  1.00  0.00    +0.000 H 
ATOM    120  H25 UNL A   1      40.699  18.070   3.639  1.00  0.00    +0.000 H 
ATOM     25  C19 UNL A   1      38.585  20.242   2.150  1.00  0.00    +0.000 C 
ATOM     26  C20 UNL A   1      39.760  19.518   2.422  1.00  0.00    +0.000 C 
ATOM     27  C21 UNL A   1      39.818  18.574   3.452  1.00  0.00    +0.000 C 
ATOM     28  C22 UNL A   1      38.694  18.314   4.224  1.00  0.00    +0.000 C 
ATOM     29  C23 UNL A   1      37.505  18.983   3.949  1.00  0.00    +0.000 C 
ATOM     30  C24 UNL A   1      37.445  19.933   2.921  1.00  0.00    +0.000 C 
ATOM     31 Cl2  UNL A   1      35.901  20.672   2.657  1.00  0.00    +0.000 Cl
ENDBRANCH   24   25
ENDBRANCH   11   13
ENDBRANCH   10   11
ENDBRANCH    9   10
ENDBRANCH    8    9
ENDBRANCH    7    8
ENDBRANCH    6    7
ENDBRANCH    5    6
ENDBRANCH    4    5
ENDBRANCH    3    4
ENDBRANCH    2    3
ENDBRANCH   33    2
ENDBRANCH   37   36
BRANCH   41   42
ATOM     42  C33 UNL A   1      58.468  17.747  10.714  1.00  0.00    +0.000 C 
ATOM     43  C34 UNL A   1      59.373  18.367   9.841  1.00  0.00    +0.000 C 
ATOM     44  F1  UNL A   1      59.425  19.705   9.760  1.00  0.00    +0.000 F 
ATOM     45  C35 UNL A   1      60.225  17.612   9.039  1.00  0.00    +0.000 C 
ATOM     46  F2  UNL A   1      61.071  18.224   8.198  1.00  0.00    +0.000 F 
ATOM     47  C36 UNL A   1      60.203  16.226   9.110  1.00  0.00    +0.000 C 
ATOM     48  F3  UNL A   1      61.039  15.501   8.352  1.00  0.00    +0.000 F 
ATOM     49  C37 UNL A   1      59.317  15.593   9.967  1.00  0.00    +0.000 C 
ATOM     50  F4  UNL A   1      59.304  14.254  10.047  1.00  0.00    +0.000 F 
ATOM     51  C38 UNL A   1      58.450  16.345  10.754  1.00  0.00    +0.000 C 
ATOM     52  F5  UNL A   1      57.607  15.704  11.579  1.00  0.00    +0.000 F 
ENDBRANCH   41   42
BRANCH   58   59
ATOM     65  F8  UNL A   1      61.754  20.435  20.474  1.00  0.00    +0.000 F 
ATOM     66  C48 UNL A   1      60.690  21.511  18.659  1.00  0.00    +0.000 C 
ATOM     67  F9  UNL A   1      61.437  22.607  18.855  1.00  0.00    +0.000 F 
ATOM     68  C49 UNL A   1      59.743  21.489  17.639  1.00  0.00    +0.000 C 
ATOM     69  F10 UNL A   1      59.590  22.581  16.875  1.00  0.00    +0.000 F 
ATOM     59  C44 UNL A   1      58.964  20.348  17.405  1.00  0.00    +0.000 C 
ATOM     60  C45 UNL A   1      59.165  19.230  18.230  1.00  0.00    +0.000 C 
ATOM     61  F6  UNL A   1      58.428  18.122  18.058  1.00  0.00    +0.000 F 
ATOM     62  C46 UNL A   1      60.092  19.266  19.267  1.00  0.00    +0.000 C 
ATOM     63  F7  UNL A   1      60.233  18.206  20.074  1.00  0.00    +0.000 F 
ATOM     64  C47 UNL A   1      60.859  20.403  19.477  1.00  0.00    +0.000 C 
ENDBRANCH   58   59
BRANCH   73   74
ATOM     74  C53 UNL A   1      52.444  22.728  16.932  1.00  0.00    +0.000 C 
ATOM     75  C54 UNL A   1      52.317  24.123  16.924  1.00  0.00    +0.000 C 
ATOM     76  F11 UNL A   1      53.038  24.856  16.063  1.00  0.00    +0.000 F 
ATOM     77  C55 UNL A   1      51.478  24.773  17.828  1.00  0.00    +0.000 C 
ATOM     78  F12 UNL A   1      51.410  26.111  17.831  1.00  0.00    +0.000 F 
ATOM     79  C56 UNL A   1      50.728  24.039  18.734  1.00  0.00    +0.000 C 
ATOM     80  F13 UNL A   1      49.919  24.664  19.601  1.00  0.00    +0.000 F 
ATOM     81  C57 UNL A   1      50.823  22.655  18.747  1.00  0.00    +0.000 C 
ATOM     82  F14 UNL A   1      50.088  21.941  19.610  1.00  0.00    +0.000 F 
ATOM     83  C58 UNL A   1      51.684  22.007  17.866  1.00  0.00    +0.000 C 
ATOM     84  F15 UNL A   1      51.767  20.669  17.910  1.00  0.00    +0.000 F 
ENDBRANCH   73   74
TORSDOF 18
ENDMDL
MODEL 9
REMARK VINA RESULT:     -10.4     24.497     27.416
ROOT
ATOM    129  H34 UNL A   1      46.460  48.459  19.604  1.00  0.00    +0.000 H 
ATOM    130  H35 UNL A   1      48.769  51.902  19.296  1.00  0.00    +0.000 H 
ATOM    131  H36 UNL A   1      52.629  51.238  22.444  1.00  0.00    +0.000 H 
ATOM    132  H37 UNL A   1      53.444  53.553  21.716  1.00  0.00    +0.000 H 
ATOM    133  H38 UNL A   1      45.844  54.287  15.166  1.00  0.00    +0.000 H 
ATOM    134  H39 UNL A   1      44.868  52.093  16.057  1.00  0.00    +0.000 H 
ATOM     37  C29 UNL A   1      46.461  50.868  18.086  1.00  0.00    +0.000 C 
ATOM     38  C30 UNL A   1      46.697  52.177  17.392  1.00  0.00    +0.000 C 
ATOM     39  N3  UNL A   1      47.670  53.037  17.569  1.00  0.00    +0.000 N 
ATOM     40  C31 UNL A   1      47.440  54.067  16.668  1.00  0.00    +0.000 C 
ATOM     41  C32 UNL A   1      48.161  55.198  16.483  1.00  0.00    +0.000 C 
ATOM     53  C39 UNL A   1      49.337  55.546  17.240  1.00  0.00    +0.000 C 
ATOM     54  C40 UNL A   1      50.096  56.703  17.171  1.00  0.00    +0.000 C 
ATOM     55  C41 UNL A   1      51.174  56.574  18.052  1.00  0.00    +0.000 C 
ATOM     56  C42 UNL A   1      51.064  55.357  18.702  1.00  0.00    +0.000 C 
ATOM     57  N4  UNL A   1      49.931  54.738  18.197  1.00  0.00    +0.000 N 
ATOM     58  C43 UNL A   1      51.932  54.796  19.705  1.00  0.00    +0.000 C 
ATOM     70  C50 UNL A   1      51.725  53.618  20.343  1.00  0.00    +0.000 C 
ATOM     71  N5  UNL A   1      50.692  52.708  20.178  1.00  0.00    +0.000 N 
ATOM     72  C51 UNL A   1      50.954  51.716  20.993  1.00  0.00    +0.000 C 
ATOM     73  C52 UNL A   1      50.171  50.458  21.234  1.00  0.00    +0.000 C 
ATOM     85  C59 UNL A   1      49.038  50.252  20.540  1.00  0.00    +0.000 C 
ATOM     86  C60 UNL A   1      48.182  49.079  20.661  1.00  0.00    +0.000 C 
ATOM     87  C61 UNL A   1      47.192  49.170  19.763  1.00  0.00    +0.000 C 
ATOM     88  C62 UNL A   1      47.310  50.440  19.041  1.00  0.00    +0.000 C 
ATOM     89  N6  UNL A   1      48.431  51.020  19.576  1.00  0.00    +0.000 N 
ATOM     90  C63 UNL A   1      52.193  51.881  21.764  1.00  0.00    +0.000 C 
ATOM     91  C64 UNL A   1      52.604  53.073  21.357  1.00  0.00    +0.000 C 
ATOM     92  C65 UNL A   1      46.243  53.720  15.929  1.00  0.00    +0.000 C 
ATOM     93  C66 UNL A   1      45.726  52.576  16.363  1.00  0.00    +0.000 C 
ATOM    125  H30 UNL A   1      49.898  57.521  16.572  1.00  0.00    +0.000 H 
ATOM    126  H31 UNL A   1      51.925  57.268  18.193  1.00  0.00    +0.000 H 
ATOM    127  H32 UNL A   1      49.596  53.855  18.478  1.00  0.00    +0.000 H 
ATOM    128  H33 UNL A   1      48.318  48.303  21.328  1.00  0.00    +0.000 H 
ENDROOT
BRANCH   37   36
ATOM     33  C25 UNL A   1      43.062  48.518  16.956  1.00  0.00    +0.000 C 
ATOM     34  C26 UNL A   1      44.269  48.398  16.263  1.00  0.00    +0.000 C 
ATOM     35  C27 UNL A   1      45.392  49.095  16.698  1.00  0.00    +0.000 C 
ATOM     36  C28 UNL A   1      45.292  50.014  17.757  1.00  0.00    +0.000 C 
ATOM    135  H40 UNL A   1      43.971  50.866  19.172  1.00  0.00    +0.000 H 
ATOM    136  H41 UNL A   1      42.053  49.528  18.515  1.00  0.00    +0.000 H 
ATOM    123  H28 UNL A   1      44.328  47.793  15.429  1.00  0.00    +0.000 H 
ATOM    124  H29 UNL A   1      46.303  48.937  16.241  1.00  0.00    +0.000 H 
ATOM     94  C67 UNL A   1      44.061  50.181  18.406  1.00  0.00    +0.000 C 
ATOM     95  C68 UNL A   1      42.951  49.421  18.018  1.00  0.00    +0.000 C 
BRANCH   33    2
ATOM      1  O1  UNL A   1      41.071  48.194  15.761  1.00  0.00    +0.000 O 
ATOM      2  C1  UNL A   1      41.874  47.726  16.557  1.00  0.00    +0.000 C 
BRANCH    2    3
ATOM      3  N1  UNL A   1      41.671  46.477  17.095  1.00  0.00    +0.000 N 
ATOM     96  H1  UNL A   1      41.242  46.460  17.980  1.00  0.00    +0.000 H 
BRANCH    3    4
ATOM     97  H2  UNL A   1      41.970  45.245  15.469  1.00  0.00    +0.000 H 
ATOM     98  H3  UNL A   1      41.289  44.473  16.908  1.00  0.00    +0.000 H 
ATOM      4  C2  UNL A   1      42.003  45.178  16.536  1.00  0.00    +0.000 C 
BRANCH    4    5
ATOM     99  H4  UNL A   1      44.110  45.261  16.400  1.00  0.00    +0.000 H 
ATOM    100  H5  UNL A   1      43.411  43.650  16.746  1.00  0.00    +0.000 H 
ATOM      5  C3  UNL A   1      43.385  44.700  16.952  1.00  0.00    +0.000 C 
BRANCH    5    6
ATOM    102  H7  UNL A   1      42.806  45.215  18.890  1.00  0.00    +0.000 H 
ATOM    101  H6  UNL A   1      44.020  43.893  18.803  1.00  0.00    +0.000 H 
ATOM      6  C4  UNL A   1      43.704  44.848  18.440  1.00  0.00    +0.000 C 
BRANCH    6    7
ATOM    103  H8  UNL A   1      44.995  45.769  19.844  1.00  0.00    +0.000 H 
ATOM      7  C5  UNL A   1      44.790  45.868  18.798  1.00  0.00    +0.000 C 
ATOM    104  H9  UNL A   1      44.389  46.818  18.510  1.00  0.00    +0.000 H 
BRANCH    7    8
ATOM    105  H10 UNL A   1      46.438  46.734  17.780  1.00  0.00    +0.000 H 
ATOM    106  H11 UNL A   1      45.929  45.108  17.214  1.00  0.00    +0.000 H 
ATOM      8  C6  UNL A   1      46.124  45.747  18.049  1.00  0.00    +0.000 C 
BRANCH    8    9
ATOM      9  C7  UNL A   1      47.264  45.087  18.821  1.00  0.00    +0.000 C 
ATOM    107  H12 UNL A   1      48.114  45.736  18.796  1.00  0.00    +0.000 H 
ATOM    108  H13 UNL A   1      47.465  44.147  18.349  1.00  0.00    +0.000 H 
BRANCH    9   10
ATOM     10  N2  UNL A   1      46.930  44.816  20.199  1.00  0.00    +0.000 N 
ATOM    109  H14 UNL A   1      46.705  45.602  20.748  1.00  0.00    +0.000 H 
BRANCH   10   11
ATOM     11  C8  UNL A   1      46.886  43.614  20.841  1.00  0.00    +0.000 C 
ATOM     12  O2  UNL A   1      46.579  42.625  20.172  1.00  0.00    +0.000 O 
BRANCH   11   13
ATOM     13  C9  UNL A   1      47.190  43.549  22.355  1.00  0.00    +0.000 C 
ATOM     14  C10 UNL A   1      46.963  44.887  23.047  1.00  0.00    +0.000 C 
ATOM    110  H15 UNL A   1      48.226  43.287  22.429  1.00  0.00    +0.000 H 
ATOM    111  H16 UNL A   1      46.476  45.569  22.382  1.00  0.00    +0.000 H 
ATOM     15  C11 UNL A   1      46.073  44.602  24.258  1.00  0.00    +0.000 C 
ATOM    112  H17 UNL A   1      47.889  45.333  23.342  1.00  0.00    +0.000 H 
ATOM    118  H23 UNL A   1      45.438  42.734  24.918  1.00  0.00    +0.000 H 
ATOM     24  C18 UNL A   1      45.507  43.187  23.951  1.00  0.00    +0.000 C 
ATOM     32  O4  UNL A   1      46.403  42.557  23.015  1.00  0.00    +0.000 O 
BRANCH   15   16
ATOM    113  H18 UNL A   1      45.352  46.454  24.361  1.00  0.00    +0.000 H 
ATOM     16  O3  UNL A   1      44.993  45.560  24.248  1.00  0.00    +0.000 O 
ENDBRANCH   15   16
BRANCH   15   17
ATOM     17  C12 UNL A   1      46.867  44.902  25.547  1.00  0.00    +0.000 C 
ATOM     18  C13 UNL A   1      48.199  45.368  25.344  1.00  0.00    +0.000 C 
ATOM     19  C14 UNL A   1      49.046  45.732  26.392  1.00  0.00    +0.000 C 
ATOM    114  H19 UNL A   1      48.554  45.440  24.377  1.00  0.00    +0.000 H 
ATOM     21  C16 UNL A   1      47.308  45.174  27.939  1.00  0.00    +0.000 C 
ATOM     22  C17 UNL A   1      46.464  44.764  26.888  1.00  0.00    +0.000 C 
ATOM     23 Cl1  UNL A   1      44.998  44.025  27.420  1.00  0.00    +0.000 Cl
ATOM    115  H20 UNL A   1      50.006  46.054  26.196  1.00  0.00    +0.000 H 
ATOM     20  C15 UNL A   1      48.589  45.659  27.695  1.00  0.00    +0.000 C 
ATOM    117  H22 UNL A   1      46.969  45.111  28.912  1.00  0.00    +0.000 H 
ATOM    116  H21 UNL A   1      49.191  45.961  28.478  1.00  0.00    +0.000 H 
ENDBRANCH   15   17
BRANCH   24   25
ATOM    122  H27 UNL A   1      41.091  41.644  24.103  1.00  0.00    +0.000 H 
ATOM    121  H26 UNL A   1      40.590  42.443  21.869  1.00  0.00    +0.000 H 
ATOM    119  H24 UNL A   1      44.443  44.083  21.605  1.00  0.00    +0.000 H 
ATOM    120  H25 UNL A   1      42.265  43.689  20.638  1.00  0.00    +0.000 H 
ATOM     25  C19 UNL A   1      44.084  43.043  23.409  1.00  0.00    +0.000 C 
ATOM     26  C20 UNL A   1      43.744  43.542  22.139  1.00  0.00    +0.000 C 
ATOM     27  C21 UNL A   1      42.481  43.325  21.580  1.00  0.00    +0.000 C 
ATOM     28  C22 UNL A   1      41.517  42.619  22.287  1.00  0.00    +0.000 C 
ATOM     29  C23 UNL A   1      41.810  42.151  23.565  1.00  0.00    +0.000 C 
ATOM     30  C24 UNL A   1      43.077  42.364  24.125  1.00  0.00    +0.000 C 
ATOM     31 Cl2  UNL A   1      43.308  41.762  25.733  1.00  0.00    +0.000 Cl
ENDBRANCH   24   25
ENDBRANCH   11   13
ENDBRANCH   10   11
ENDBRANCH    9   10
ENDBRANCH    8    9
ENDBRANCH    7    8
ENDBRANCH    6    7
ENDBRANCH    5    6
ENDBRANCH    4    5
ENDBRANCH    3    4
ENDBRANCH    2    3
ENDBRANCH   33    2
ENDBRANCH   37   36
BRANCH   41   42
ATOM     42  C33 UNL A   1      47.717  56.154  15.415  1.00  0.00    +0.000 C 
ATOM     43  C34 UNL A   1      47.011  57.325  15.724  1.00  0.00    +0.000 C 
ATOM     44  F1  UNL A   1      46.624  57.568  16.986  1.00  0.00    +0.000 F 
ATOM     45  C35 UNL A   1      46.689  58.249  14.733  1.00  0.00    +0.000 C 
ATOM     46  F2  UNL A   1      45.998  59.354  15.047  1.00  0.00    +0.000 F 
ATOM     47  C36 UNL A   1      47.086  58.032  13.421  1.00  0.00    +0.000 C 
ATOM     48  F3  UNL A   1      46.794  58.933  12.472  1.00  0.00    +0.000 F 
ATOM     49  C37 UNL A   1      47.788  56.882  13.094  1.00  0.00    +0.000 C 
ATOM     50  F4  UNL A   1      48.183  56.676  11.830  1.00  0.00    +0.000 F 
ATOM     51  C38 UNL A   1      48.091  55.946  14.079  1.00  0.00    +0.000 C 
ATOM     52  F5  UNL A   1      48.776  54.844  13.733  1.00  0.00    +0.000 F 
ENDBRANCH   41   42
BRANCH   58   59
ATOM     65  F8  UNL A   1      56.547  57.699  21.171  1.00  0.00    +0.000 F 
ATOM     66  C48 UNL A   1      55.541  55.977  19.905  1.00  0.00    +0.000 C 
ATOM     67  F9  UNL A   1      56.727  55.664  19.365  1.00  0.00    +0.000 F 
ATOM     68  C49 UNL A   1      54.400  55.273  19.531  1.00  0.00    +0.000 C 
ATOM     69  F10 UNL A   1      54.513  54.293  18.621  1.00  0.00    +0.000 F 
ATOM     59  C44 UNL A   1      53.152  55.572  20.096  1.00  0.00    +0.000 C 
ATOM     60  C45 UNL A   1      53.088  56.602  21.047  1.00  0.00    +0.000 C 
ATOM     61  F6  UNL A   1      51.912  56.938  21.599  1.00  0.00    +0.000 F 
ATOM     62  C46 UNL A   1      54.225  57.323  21.396  1.00  0.00    +0.000 C 
ATOM     63  F7  UNL A   1      54.132  58.336  22.269  1.00  0.00    +0.000 F 
ATOM     64  C47 UNL A   1      55.452  57.006  20.831  1.00  0.00    +0.000 C 
ENDBRANCH   58   59
BRANCH   73   74
ATOM     74  C53 UNL A   1      50.639  49.438  22.207  1.00  0.00    +0.000 C 
ATOM     75  C54 UNL A   1      51.469  48.384  21.807  1.00  0.00    +0.000 C 
ATOM     76  F11 UNL A   1      51.839  48.274  20.522  1.00  0.00    +0.000 F 
ATOM     77  C55 UNL A   1      51.890  47.416  22.717  1.00  0.00    +0.000 C 
ATOM     78  F12 UNL A   1      52.645  46.391  22.299  1.00  0.00    +0.000 F 
ATOM     79  C56 UNL A   1      51.514  47.502  24.049  1.00  0.00    +0.000 C 
ATOM     80  F13 UNL A   1      51.922  46.572  24.924  1.00  0.00    +0.000 F 
ATOM     81  C57 UNL A   1      50.708  48.548  24.472  1.00  0.00    +0.000 C 
ATOM     82  F14 UNL A   1      50.356  48.644  25.761  1.00  0.00    +0.000 F 
ATOM     83  C58 UNL A   1      50.263  49.498  23.557  1.00  0.00    +0.000 C 
ATOM     84  F15 UNL A   1      49.472  50.491  23.991  1.00  0.00    +0.000 F 
ENDBRANCH   73   74
TORSDOF 18
ENDMDL
MODEL 10
REMARK VINA RESULT:     -10.4     37.759     43.301
ROOT
ATOM    129  H34 UNL A   1      12.090  52.550   6.828  1.00  0.00    +0.000 H 
ATOM    130  H35 UNL A   1      14.524  51.592   3.597  1.00  0.00    +0.000 H 
ATOM    131  H36 UNL A   1      13.543  46.780   2.534  1.00  0.00    +0.000 H 
ATOM    132  H37 UNL A   1      15.269  46.985   0.655  1.00  0.00    +0.000 H 
ATOM    133  H38 UNL A   1      16.586  56.729   2.782  1.00  0.00    +0.000 H 
ATOM    134  H39 UNL A   1      15.058  56.486   4.824  1.00  0.00    +0.000 H 
ATOM     37  C29 UNL A   1      13.950  53.871   5.125  1.00  0.00    +0.000 C 
ATOM     38  C30 UNL A   1      14.924  54.347   4.087  1.00  0.00    +0.000 C 
ATOM     39  N3  UNL A   1      15.477  53.673   3.110  1.00  0.00    +0.000 N 
ATOM     40  C31 UNL A   1      16.279  54.576   2.427  1.00  0.00    +0.000 C 
ATOM     41  C32 UNL A   1      17.069  54.352   1.350  1.00  0.00    +0.000 C 
ATOM     53  C39 UNL A   1      17.230  53.070   0.712  1.00  0.00    +0.000 C 
ATOM     54  C40 UNL A   1      18.061  52.729  -0.342  1.00  0.00    +0.000 C 
ATOM     55  C41 UNL A   1      17.840  51.385  -0.660  1.00  0.00    +0.000 C 
ATOM     56  C42 UNL A   1      16.904  50.876   0.224  1.00  0.00    +0.000 C 
ATOM     57  N4  UNL A   1      16.541  51.919   1.062  1.00  0.00    +0.000 N 
ATOM     58  C43 UNL A   1      16.374  49.539   0.294  1.00  0.00    +0.000 C 
ATOM     70  C50 UNL A   1      15.499  49.097   1.231  1.00  0.00    +0.000 C 
ATOM     71  N5  UNL A   1      14.920  49.794   2.280  1.00  0.00    +0.000 N 
ATOM     72  C51 UNL A   1      14.124  48.943   2.879  1.00  0.00    +0.000 C 
ATOM     73  C52 UNL A   1      13.248  49.153   4.080  1.00  0.00    +0.000 C 
ATOM     85  C59 UNL A   1      13.221  50.365   4.663  1.00  0.00    +0.000 C 
ATOM     86  C60 UNL A   1      12.415  50.718   5.826  1.00  0.00    +0.000 C 
ATOM     87  C61 UNL A   1      12.572  52.024   6.081  1.00  0.00    +0.000 C 
ATOM     88  C62 UNL A   1      13.538  52.588   5.135  1.00  0.00    +0.000 C 
ATOM     89  N6  UNL A   1      13.875  51.527   4.335  1.00  0.00    +0.000 N 
ATOM     90  C63 UNL A   1      14.100  47.608   2.269  1.00  0.00    +0.000 C 
ATOM     91  C64 UNL A   1      14.984  47.744   1.292  1.00  0.00    +0.000 C 
ATOM     92  C65 UNL A   1      16.129  55.856   3.089  1.00  0.00    +0.000 C 
ATOM     93  C66 UNL A   1      15.328  55.760   4.143  1.00  0.00    +0.000 C 
ATOM    125  H30 UNL A   1      18.730  53.360  -0.812  1.00  0.00    +0.000 H 
ATOM    126  H31 UNL A   1      18.296  50.863  -1.425  1.00  0.00    +0.000 H 
ATOM    127  H32 UNL A   1      15.890  51.852   1.799  1.00  0.00    +0.000 H 
ATOM    128  H33 UNL A   1      11.820  50.068   6.363  1.00  0.00    +0.000 H 
ENDROOT
BRANCH   37   36
ATOM     33  C25 UNL A   1      12.497  56.667   8.027  1.00  0.00    +0.000 C 
ATOM     34  C26 UNL A   1      11.864  56.536   6.789  1.00  0.00    +0.000 C 
ATOM     35  C27 UNL A   1      12.286  55.559   5.893  1.00  0.00    +0.000 C 
ATOM     36  C28 UNL A   1      13.423  54.783   6.171  1.00  0.00    +0.000 C 
ATOM    135  H40 UNL A   1      14.944  54.413   7.595  1.00  0.00    +0.000 H 
ATOM    136  H41 UNL A   1      14.107  56.007   9.227  1.00  0.00    +0.000 H 
ATOM    123  H28 UNL A   1      11.083  57.164   6.539  1.00  0.00    +0.000 H 
ATOM    124  H29 UNL A   1      11.760  55.405   5.019  1.00  0.00    +0.000 H 
ATOM     94  C67 UNL A   1      14.097  54.965   7.387  1.00  0.00    +0.000 C 
ATOM     95  C68 UNL A   1      13.624  55.893   8.322  1.00  0.00    +0.000 C 
BRANCH   33    2
ATOM      1  O1  UNL A   1      12.357  58.821   8.943  1.00  0.00    +0.000 O 
ATOM      2  C1  UNL A   1      12.017  57.649   9.029  1.00  0.00    +0.000 C 
BRANCH    2    3
ATOM      3  N1  UNL A   1      11.202  57.236  10.057  1.00  0.00    +0.000 N 
ATOM     96  H1  UNL A   1      11.035  56.267  10.102  1.00  0.00    +0.000 H 
BRANCH    3    4
ATOM     97  H2  UNL A   1       9.542  58.209  10.794  1.00  0.00    +0.000 H 
ATOM     98  H3  UNL A   1      11.104  58.945  11.182  1.00  0.00    +0.000 H 
ATOM      4  C2  UNL A   1      10.555  58.031  11.086  1.00  0.00    +0.000 C 
BRANCH    4    5
ATOM     99  H4  UNL A   1       9.853  57.846  13.071  1.00  0.00    +0.000 H 
ATOM    100  H5  UNL A   1      11.566  57.401  12.802  1.00  0.00    +0.000 H 
ATOM      5  C3  UNL A   1      10.559  57.344  12.443  1.00  0.00    +0.000 C 
BRANCH    5    6
ATOM    102  H7  UNL A   1       9.132  55.822  12.424  1.00  0.00    +0.000 H 
ATOM    101  H6  UNL A   1      10.652  55.427  11.552  1.00  0.00    +0.000 H 
ATOM      6  C4  UNL A   1      10.200  55.858  12.420  1.00  0.00    +0.000 C 
BRANCH    6    7
ATOM    103  H8  UNL A   1      10.593  54.004  13.367  1.00  0.00    +0.000 H 
ATOM      7  C5  UNL A   1      10.645  55.039  13.636  1.00  0.00    +0.000 C 
ATOM    104  H9  UNL A   1       9.984  55.328  14.426  1.00  0.00    +0.000 H 
BRANCH    7    8
ATOM    105  H10 UNL A   1      12.065  55.064  15.213  1.00  0.00    +0.000 H 
ATOM    106  H11 UNL A   1      12.252  56.341  13.964  1.00  0.00    +0.000 H 
ATOM      8  C6  UNL A   1      12.058  55.310  14.171  1.00  0.00    +0.000 C 
BRANCH    8    9
ATOM      9  C7  UNL A   1      13.186  54.531  13.498  1.00  0.00    +0.000 C 
ATOM    107  H12 UNL A   1      14.015  54.480  14.173  1.00  0.00    +0.000 H 
ATOM    108  H13 UNL A   1      13.437  55.050  12.596  1.00  0.00    +0.000 H 
BRANCH    9   10
ATOM     10  N2  UNL A   1      12.804  53.187  13.133  1.00  0.00    +0.000 N 
ATOM    109  H14 UNL A   1      12.525  52.604  13.876  1.00  0.00    +0.000 H 
BRANCH   10   11
ATOM     11  C8  UNL A   1      12.779  52.620  11.893  1.00  0.00    +0.000 C 
ATOM     12  O2  UNL A   1      13.185  53.302  10.950  1.00  0.00    +0.000 O 
BRANCH   11   13
ATOM     13  C9  UNL A   1      12.231  51.184  11.724  1.00  0.00    +0.000 C 
ATOM     14  C10 UNL A   1      11.898  50.862  10.273  1.00  0.00    +0.000 C 
ATOM    110  H15 UNL A   1      11.332  51.150  12.306  1.00  0.00    +0.000 H 
ATOM    111  H16 UNL A   1      12.266  51.633   9.629  1.00  0.00    +0.000 H 
ATOM     15  C11 UNL A   1      12.587  49.534   9.957  1.00  0.00    +0.000 C 
ATOM    112  H17 UNL A   1      10.841  50.796  10.123  1.00  0.00    +0.000 H 
ATOM    118  H23 UNL A   1      13.633  48.330  11.294  1.00  0.00    +0.000 H 
ATOM     24  C18 UNL A   1      13.611  49.385  11.117  1.00  0.00    +0.000 C 
ATOM     32  O4  UNL A   1      13.147  50.203  12.209  1.00  0.00    +0.000 O 
BRANCH   15   16
ATOM    113  H18 UNL A   1      14.132  49.195   8.749  1.00  0.00    +0.000 H 
ATOM     16  O3  UNL A   1      13.299  49.691   8.711  1.00  0.00    +0.000 O 
ENDBRANCH   15   16
BRANCH   15   17
ATOM     17  C12 UNL A   1      11.512  48.464   9.675  1.00  0.00    +0.000 C 
ATOM     18  C13 UNL A   1      10.451  48.881   8.818  1.00  0.00    +0.000 C 
ATOM     19  C14 UNL A   1       9.417  48.034   8.418  1.00  0.00    +0.000 C 
ATOM    114  H19 UNL A   1      10.448  49.856   8.478  1.00  0.00    +0.000 H 
ATOM     21  C16 UNL A   1      10.403  46.282   9.716  1.00  0.00    +0.000 C 
ATOM     22  C17 UNL A   1      11.425  47.145  10.158  1.00  0.00    +0.000 C 
ATOM     23 Cl1  UNL A   1      12.443  46.455  11.369  1.00  0.00    +0.000 Cl
ATOM    115  H20 UNL A   1       8.665  48.385   7.805  1.00  0.00    +0.000 H 
ATOM     20  C15 UNL A   1       9.407  46.719   8.848  1.00  0.00    +0.000 C 
ATOM    117  H22 UNL A   1      10.392  45.304  10.044  1.00  0.00    +0.000 H 
ATOM    116  H21 UNL A   1       8.670  46.070   8.530  1.00  0.00    +0.000 H 
ENDBRANCH   15   17
BRANCH   24   25
ATOM    122  H27 UNL A   1      17.916  48.468   9.528  1.00  0.00    +0.000 H 
ATOM    121  H26 UNL A   1      18.864  50.455  10.544  1.00  0.00    +0.000 H 
ATOM    119  H24 UNL A   1      15.049  51.569  11.890  1.00  0.00    +0.000 H 
ATOM    120  H25 UNL A   1      17.415  52.018  11.698  1.00  0.00    +0.000 H 
ATOM     25  C19 UNL A   1      15.083  49.718  10.874  1.00  0.00    +0.000 C 
ATOM     26  C20 UNL A   1      15.654  50.889  11.403  1.00  0.00    +0.000 C 
ATOM     27  C21 UNL A   1      17.021  51.157  11.286  1.00  0.00    +0.000 C 
ATOM     28  C22 UNL A   1      17.851  50.268  10.616  1.00  0.00    +0.000 C 
ATOM     29  C23 UNL A   1      17.308  49.121  10.044  1.00  0.00    +0.000 C 
ATOM     30  C24 UNL A   1      15.938  48.849  10.164  1.00  0.00    +0.000 C 
ATOM     31 Cl2  UNL A   1      15.378  47.409   9.381  1.00  0.00    +0.000 Cl
ENDBRANCH   24   25
ENDBRANCH   11   13
ENDBRANCH   10   11
ENDBRANCH    9   10
ENDBRANCH    8    9
ENDBRANCH    7    8
ENDBRANCH    6    7
ENDBRANCH    5    6
ENDBRANCH    4    5
ENDBRANCH    3    4
ENDBRANCH    2    3
ENDBRANCH   33    2
ENDBRANCH   37   36
BRANCH   41   42
ATOM     42  C33 UNL A   1      17.825  55.512   0.771  1.00  0.00    +0.000 C 
ATOM     43  C34 UNL A   1      19.081  55.891   1.265  1.00  0.00    +0.000 C 
ATOM     44  F1  UNL A   1      19.595  55.281   2.344  1.00  0.00    +0.000 F 
ATOM     45  C35 UNL A   1      19.812  56.908   0.657  1.00  0.00    +0.000 C 
ATOM     46  F2  UNL A   1      21.003  57.268   1.156  1.00  0.00    +0.000 F 
ATOM     47  C36 UNL A   1      19.311  57.550  -0.468  1.00  0.00    +0.000 C 
ATOM     48  F3  UNL A   1      20.026  58.515  -1.064  1.00  0.00    +0.000 F 
ATOM     49  C37 UNL A   1      18.072  57.189  -0.974  1.00  0.00    +0.000 C 
ATOM     50  F4  UNL A   1      17.593  57.799  -2.068  1.00  0.00    +0.000 F 
ATOM     51  C38 UNL A   1      17.331  56.188  -0.355  1.00  0.00    +0.000 C 
ATOM     52  F5  UNL A   1      16.136  55.857  -0.871  1.00  0.00    +0.000 F 
ENDBRANCH   41   42
BRANCH   58   59
ATOM     65  F8  UNL A   1      18.115  45.797  -3.560  1.00  0.00    +0.000 F 
ATOM     66  C48 UNL A   1      18.480  46.952  -1.531  1.00  0.00    +0.000 C 
ATOM     67  F9  UNL A   1      19.651  46.321  -1.368  1.00  0.00    +0.000 F 
ATOM     68  C49 UNL A   1      18.042  47.861  -0.572  1.00  0.00    +0.000 C 
ATOM     69  F10 UNL A   1      18.806  48.080   0.509  1.00  0.00    +0.000 F 
ATOM     59  C44 UNL A   1      16.829  48.545  -0.730  1.00  0.00    +0.000 C 
ATOM     60  C45 UNL A   1      16.068  48.284  -1.881  1.00  0.00    +0.000 C 
ATOM     61  F6  UNL A   1      14.891  48.899  -2.066  1.00  0.00    +0.000 F 
ATOM     62  C46 UNL A   1      16.495  47.353  -2.822  1.00  0.00    +0.000 C 
ATOM     63  F7  UNL A   1      15.730  47.082  -3.889  1.00  0.00    +0.000 F 
ATOM     64  C47 UNL A   1      17.703  46.692  -2.651  1.00  0.00    +0.000 C 
ENDBRANCH   58   59
BRANCH   73   74
ATOM     74  C53 UNL A   1      12.403  48.055   4.615  1.00  0.00    +0.000 C 
ATOM     75  C54 UNL A   1      11.169  47.742   4.031  1.00  0.00    +0.000 C 
ATOM     76  F11 UNL A   1      10.725  48.450   2.982  1.00  0.00    +0.000 F 
ATOM     77  C55 UNL A   1      10.368  46.724   4.548  1.00  0.00    +0.000 C 
ATOM     78  F12 UNL A   1       9.171  46.475   3.999  1.00  0.00    +0.000 F 
ATOM     79  C56 UNL A   1      10.800  45.982   5.636  1.00  0.00    +0.000 C 
ATOM     80  F13 UNL A   1      10.031  45.002   6.130  1.00  0.00    +0.000 F 
ATOM     81  C57 UNL A   1      12.027  46.262   6.218  1.00  0.00    +0.000 C 
ATOM     82  F14 UNL A   1      12.456  45.537   7.260  1.00  0.00    +0.000 F 
ATOM     83  C58 UNL A   1      12.814  47.298   5.722  1.00  0.00    +0.000 C 
ATOM     84  F15 UNL A   1      13.990  47.557   6.314  1.00  0.00    +0.000 F 
ENDBRANCH   73   74
TORSDOF 18
ENDMDL
