MODEL 1
REMARK VINA RESULT:     -11.7      0.000      0.000
ROOT
ATOM     28  C20 UNL A   1      40.672  27.950  28.898  1.00  0.00    +0.000 C 
ATOM     29  C21 UNL A   1      41.799  28.724  28.326  1.00  0.00    +0.000 C 
ATOM     30  N6  UNL A   1      42.867  29.119  28.932  1.00  0.00    +0.000 N 
ATOM     31  C22 UNL A   1      43.599  29.838  27.992  1.00  0.00    +0.000 C 
ATOM     32  C23 UNL A   1      44.494  30.789  28.380  1.00  0.00    +0.000 C 
ATOM     44  C30 UNL A   1      44.807  30.655  29.782  1.00  0.00    +0.000 C 
ATOM     45  C31 UNL A   1      45.406  29.674  30.547  1.00  0.00    +0.000 C 
ATOM     46  C32 UNL A   1      44.654  29.643  31.759  1.00  0.00    +0.000 C 
ATOM     47  C33 UNL A   1      43.697  30.658  31.699  1.00  0.00    +0.000 C 
ATOM     48  N7  UNL A   1      44.127  31.455  30.668  1.00  0.00    +0.000 N 
ATOM     49  C34 UNL A   1      42.469  30.885  32.427  1.00  0.00    +0.000 C 
ATOM     61  C41 UNL A   1      41.447  31.685  32.001  1.00  0.00    +0.000 C 
ATOM     62  N8  UNL A   1      40.168  31.559  32.526  1.00  0.00    +0.000 N 
ATOM     63  C42 UNL A   1      39.376  31.988  31.579  1.00  0.00    +0.000 C 
ATOM     64  C43 UNL A   1      38.095  31.315  31.230  1.00  0.00    +0.000 C 
ATOM     76  C50 UNL A   1      38.426  30.093  30.745  1.00  0.00    +0.000 C 
ATOM     77  C51 UNL A   1      37.631  28.897  30.597  1.00  0.00    +0.000 C 
ATOM     78  C52 UNL A   1      38.420  27.931  30.086  1.00  0.00    +0.000 C 
ATOM     79  C53 UNL A   1      39.720  28.496  29.694  1.00  0.00    +0.000 C 
ATOM     80  N9  UNL A   1      39.696  29.761  30.223  1.00  0.00    +0.000 N 
ATOM     81  C54 UNL A   1      40.006  32.795  30.547  1.00  0.00    +0.000 C 
ATOM     82  C55 UNL A   1      41.285  32.494  30.795  1.00  0.00    +0.000 C 
ATOM     83  C56 UNL A   1      43.000  29.554  26.714  1.00  0.00    +0.000 C 
ATOM     84  C57 UNL A   1      41.813  28.966  26.875  1.00  0.00    +0.000 C 
ATOM    112  H22 UNL A   1      46.219  29.090  30.296  1.00  0.00    +0.000 H 
ATOM    113  H23 UNL A   1      44.793  28.986  32.543  1.00  0.00    +0.000 H 
ATOM    114  H24 UNL A   1      43.975  32.423  30.580  1.00  0.00    +0.000 H 
ATOM    115  H25 UNL A   1      36.633  28.800  30.840  1.00  0.00    +0.000 H 
ATOM    116  H26 UNL A   1      38.152  26.939  29.985  1.00  0.00    +0.000 H 
ATOM    117  H27 UNL A   1      40.472  30.367  30.238  1.00  0.00    +0.000 H 
ATOM    118  H28 UNL A   1      39.590  33.417  29.836  1.00  0.00    +0.000 H 
ATOM    119  H29 UNL A   1      42.070  32.799  30.198  1.00  0.00    +0.000 H 
ATOM    120  H30 UNL A   1      43.429  29.776  25.802  1.00  0.00    +0.000 H 
ATOM    121  H31 UNL A   1      41.096  28.740  26.168  1.00  0.00    +0.000 H 
ENDROOT
BRANCH   28   27
ATOM    122  H32 UNL A   1      41.859  25.808  29.701  1.00  0.00    +0.000 H 
ATOM     27  C19 UNL A   1      40.489  26.629  28.323  1.00  0.00    +0.000 C 
ATOM    110  H20 UNL A   1      38.679  24.753  26.223  1.00  0.00    +0.000 H 
ATOM    111  H21 UNL A   1      38.925  27.078  26.960  1.00  0.00    +0.000 H 
ATOM     85  C58 UNL A   1      41.315  25.645  28.839  1.00  0.00    +0.000 C 
ATOM     86  C59 UNL A   1      41.391  24.458  28.181  1.00  0.00    +0.000 C 
ATOM     24  C16 UNL A   1      40.357  24.084  27.334  1.00  0.00    +0.000 C 
ATOM     25  C17 UNL A   1      39.427  25.024  26.880  1.00  0.00    +0.000 C 
ATOM     26  C18 UNL A   1      39.535  26.336  27.337  1.00  0.00    +0.000 C 
ATOM    123  H33 UNL A   1      42.208  23.841  28.310  1.00  0.00    +0.000 H 
BRANCH   24   22
ATOM     22  C15 UNL A   1      40.279  22.650  27.008  1.00  0.00    +0.000 C 
ATOM     23  O3  UNL A   1      40.823  21.821  27.710  1.00  0.00    +0.000 O 
BRANCH   22   21
ATOM    109  H19 UNL A   1      39.577  22.913  25.125  1.00  0.00    +0.000 H 
ATOM     21  N5  UNL A   1      39.545  22.288  25.885  1.00  0.00    +0.000 N 
BRANCH   21   20
ATOM    108  H18 UNL A   1      38.587  20.633  26.662  1.00  0.00    +0.000 H 
ATOM    107  H17 UNL A   1      39.237  20.420  25.032  1.00  0.00    +0.000 H 
ATOM     20  C14 UNL A   1      38.729  21.082  25.701  1.00  0.00    +0.000 C 
BRANCH   20   19
ATOM    105  H15 UNL A   1      37.264  20.907  24.182  1.00  0.00    +0.000 H 
ATOM    106  H16 UNL A   1      36.630  21.050  25.830  1.00  0.00    +0.000 H 
ATOM     19  C13 UNL A   1      37.359  21.397  25.128  1.00  0.00    +0.000 C 
BRANCH   19   18
ATOM     18  C12 UNL A   1      37.125  22.901  24.927  1.00  0.00    +0.000 C 
ATOM    103  H13 UNL A   1      38.016  23.414  25.224  1.00  0.00    +0.000 H 
ATOM    104  H14 UNL A   1      36.875  23.017  23.893  1.00  0.00    +0.000 H 
BRANCH   18   17
ATOM     17  C11 UNL A   1      35.947  23.514  25.705  1.00  0.00    +0.000 C 
ATOM    101  H11 UNL A   1      36.322  23.877  26.639  1.00  0.00    +0.000 H 
ATOM    102  H12 UNL A   1      35.543  24.279  25.076  1.00  0.00    +0.000 H 
BRANCH   17   16
ATOM     99  H9  UNL A   1      34.141  22.525  25.148  1.00  0.00    +0.000 H 
ATOM    100  H10 UNL A   1      35.211  21.596  26.217  1.00  0.00    +0.000 H 
ATOM     16  C10 UNL A   1      34.786  22.555  26.002  1.00  0.00    +0.000 C 
BRANCH   16   15
ATOM     97  H7  UNL A   1      34.338  22.478  28.092  1.00  0.00    +0.000 H 
ATOM     98  H8  UNL A   1      34.028  24.032  27.346  1.00  0.00    +0.000 H 
ATOM     15  C9  UNL A   1      33.959  22.971  27.222  1.00  0.00    +0.000 C 
BRANCH   15   14
ATOM     14  N4  UNL A   1      32.569  22.604  27.029  1.00  0.00    +0.000 N 
ATOM     96  H6  UNL A   1      32.119  22.325  27.860  1.00  0.00    +0.000 H 
BRANCH   14   12
ATOM     12  C8  UNL A   1      31.753  22.564  25.928  1.00  0.00    +0.000 C 
ATOM     13  O2  UNL A   1      31.524  21.464  25.425  1.00  0.00    +0.000 O 
BRANCH   12   11
ATOM      8  C4  UNL A   1      29.861  25.977  24.201  1.00  0.00    +0.000 C 
ATOM      9  C5  UNL A   1      30.133  25.953  25.568  1.00  0.00    +0.000 C 
ATOM     10  C6  UNL A   1      30.786  24.834  26.097  1.00  0.00    +0.000 C 
ATOM     11  C7  UNL A   1      31.223  23.788  25.263  1.00  0.00    +0.000 C 
ATOM     87  C60 UNL A   1      31.110  23.940  23.881  1.00  0.00    +0.000 C 
ATOM     88  C61 UNL A   1      30.374  24.997  23.349  1.00  0.00    +0.000 C 
ATOM    124  H34 UNL A   1      31.573  23.267  23.249  1.00  0.00    +0.000 H 
ATOM    125  H35 UNL A   1      30.210  25.056  22.331  1.00  0.00    +0.000 H 
ATOM     94  H4  UNL A   1      29.861  26.742  26.175  1.00  0.00    +0.000 H 
ATOM     95  H5  UNL A   1      30.949  24.776  27.114  1.00  0.00    +0.000 H 
BRANCH    8    7
ATOM      4  C3  UNL A   1      28.216  28.864  22.976  1.00  0.00    +0.000 C 
ATOM      5  N1  UNL A   1      27.195  28.096  23.488  1.00  0.00    +0.000 N 
ATOM      6  N2  UNL A   1      27.681  26.903  23.802  1.00  0.00    +0.000 N 
ATOM      7  N3  UNL A   1      29.016  26.965  23.669  1.00  0.00    +0.000 N 
ATOM     89  C62 UNL A   1      29.390  28.127  23.015  1.00  0.00    +0.000 C 
BRANCH    4    2
ATOM      2  C2  UNL A   1      27.967  30.215  22.488  1.00  0.00    +0.000 C 
ATOM      3  O1  UNL A   1      27.953  30.469  21.284  1.00  0.00    +0.000 O 
BRANCH    2    1
ATOM      1  C1  UNL A   1      27.721  31.316  23.486  1.00  0.00    +0.000 C 
ATOM     91  H1  UNL A   1      28.009  32.254  23.062  1.00  0.00    +0.000 H 
ATOM     92  H2  UNL A   1      28.296  31.132  24.369  1.00  0.00    +0.000 H 
ATOM     93  H3  UNL A   1      26.681  31.343  23.738  1.00  0.00    +0.000 H 
ENDBRANCH    2    1
ENDBRANCH    4    2
BRANCH   89   90
ATOM     90  C63 UNL A   1      30.770  28.347  22.517  1.00  0.00    +0.000 C 
ATOM    126  H36 UNL A   1      30.846  29.329  22.099  1.00  0.00    +0.000 H 
ATOM    127  H37 UNL A   1      30.997  27.621  21.764  1.00  0.00    +0.000 H 
ATOM    128  H38 UNL A   1      31.461  28.250  23.328  1.00  0.00    +0.000 H 
ENDBRANCH   89   90
ENDBRANCH    8    7
ENDBRANCH   12   11
ENDBRANCH   14   12
ENDBRANCH   15   14
ENDBRANCH   16   15
ENDBRANCH   17   16
ENDBRANCH   18   17
ENDBRANCH   19   18
ENDBRANCH   20   19
ENDBRANCH   21   20
ENDBRANCH   22   21
ENDBRANCH   24   22
ENDBRANCH   28   27
BRANCH   32   33
ATOM     33  C24 UNL A   1      44.815  32.042  27.606  1.00  0.00    +0.000 C 
ATOM     34  C25 UNL A   1      46.052  32.132  26.935  1.00  0.00    +0.000 C 
ATOM     35  F1  UNL A   1      46.815  31.042  26.760  1.00  0.00    +0.000 F 
ATOM     36  C26 UNL A   1      46.573  33.355  26.505  1.00  0.00    +0.000 C 
ATOM     37  F2  UNL A   1      47.808  33.405  25.986  1.00  0.00    +0.000 F 
ATOM     38  C27 UNL A   1      45.854  34.522  26.673  1.00  0.00    +0.000 C 
ATOM     39  F3  UNL A   1      46.377  35.702  26.320  1.00  0.00    +0.000 F 
ATOM     40  C28 UNL A   1      44.605  34.466  27.255  1.00  0.00    +0.000 C 
ATOM     41  F4  UNL A   1      43.897  35.589  27.440  1.00  0.00    +0.000 F 
ATOM     42  C29 UNL A   1      44.106  33.256  27.733  1.00  0.00    +0.000 C 
ATOM     43  F5  UNL A   1      42.958  33.346  28.415  1.00  0.00    +0.000 F 
ENDBRANCH   32   33
BRANCH   49   50
ATOM     50  C35 UNL A   1      42.220  30.004  33.624  1.00  0.00    +0.000 C 
ATOM     51  C36 UNL A   1      41.767  28.675  33.543  1.00  0.00    +0.000 C 
ATOM     52  F6  UNL A   1      41.468  28.125  32.361  1.00  0.00    +0.000 F 
ATOM     53  C37 UNL A   1      41.672  27.866  34.675  1.00  0.00    +0.000 C 
ATOM     54  F7  UNL A   1      41.232  26.604  34.566  1.00  0.00    +0.000 F 
ATOM     55  C38 UNL A   1      42.069  28.353  35.908  1.00  0.00    +0.000 C 
ATOM     56  F8  UNL A   1      42.020  27.566  36.992  1.00  0.00    +0.000 F 
ATOM     57  C39 UNL A   1      42.545  29.651  36.012  1.00  0.00    +0.000 C 
ATOM     58  F9  UNL A   1      42.977  30.111  37.193  1.00  0.00    +0.000 F 
ATOM     59  C40 UNL A   1      42.607  30.470  34.887  1.00  0.00    +0.000 C 
ATOM     60  F10 UNL A   1      43.100  31.710  35.021  1.00  0.00    +0.000 F 
ENDBRANCH   49   50
BRANCH   64   65
ATOM     65  C44 UNL A   1      36.815  32.042  31.078  1.00  0.00    +0.000 C 
ATOM     66  C45 UNL A   1      35.947  32.233  32.165  1.00  0.00    +0.000 C 
ATOM     67  F11 UNL A   1      36.155  31.573  33.314  1.00  0.00    +0.000 F 
ATOM     68  C46 UNL A   1      34.895  33.154  32.111  1.00  0.00    +0.000 C 
ATOM     69  F12 UNL A   1      34.120  33.349  33.187  1.00  0.00    +0.000 F 
ATOM     70  C47 UNL A   1      34.683  33.910  30.969  1.00  0.00    +0.000 C 
ATOM     71  F13 UNL A   1      33.715  34.837  30.938  1.00  0.00    +0.000 F 
ATOM     72  C48 UNL A   1      35.506  33.730  29.873  1.00  0.00    +0.000 C 
ATOM     73  F14 UNL A   1      35.337  34.483  28.777  1.00  0.00    +0.000 F 
ATOM     74  C49 UNL A   1      36.555  32.811  29.926  1.00  0.00    +0.000 C 
ATOM     75  F15 UNL A   1      37.374  32.753  28.866  1.00  0.00    +0.000 F 
ENDBRANCH   64   65
TORSDOF 19
ENDMDL
MODEL 2
REMARK VINA RESULT:     -11.7      3.115      8.330
ROOT
ATOM     28  C20 UNL A   1      40.135  29.138  29.102  1.00  0.00    +0.000 C 
ATOM     29  C21 UNL A   1      40.356  28.769  30.521  1.00  0.00    +0.000 C 
ATOM     30  N6  UNL A   1      41.256  29.231  31.321  1.00  0.00    +0.000 N 
ATOM     31  C22 UNL A   1      41.086  28.552  32.523  1.00  0.00    +0.000 C 
ATOM     32  C23 UNL A   1      42.120  28.412  33.400  1.00  0.00    +0.000 C 
ATOM     44  C30 UNL A   1      43.187  29.330  33.083  1.00  0.00    +0.000 C 
ATOM     45  C31 UNL A   1      43.300  30.706  33.055  1.00  0.00    +0.000 C 
ATOM     46  C32 UNL A   1      44.092  30.986  31.902  1.00  0.00    +0.000 C 
ATOM     47  C33 UNL A   1      44.485  29.769  31.341  1.00  0.00    +0.000 C 
ATOM     48  N7  UNL A   1      44.237  28.855  32.335  1.00  0.00    +0.000 N 
ATOM     49  C34 UNL A   1      44.969  29.411  30.028  1.00  0.00    +0.000 C 
ATOM     61  C41 UNL A   1      44.936  28.151  29.502  1.00  0.00    +0.000 C 
ATOM     62  N8  UNL A   1      45.041  27.941  28.133  1.00  0.00    +0.000 N 
ATOM     63  C42 UNL A   1      44.420  26.810  27.922  1.00  0.00    +0.000 C 
ATOM     64  C43 UNL A   1      43.515  26.589  26.761  1.00  0.00    +0.000 C 
ATOM     76  C50 UNL A   1      42.461  27.425  26.934  1.00  0.00    +0.000 C 
ATOM     77  C51 UNL A   1      41.486  27.911  25.988  1.00  0.00    +0.000 C 
ATOM     78  C52 UNL A   1      40.647  28.741  26.640  1.00  0.00    +0.000 C 
ATOM     79  C53 UNL A   1      40.914  28.693  28.086  1.00  0.00    +0.000 C 
ATOM     80  N9  UNL A   1      42.082  27.981  28.176  1.00  0.00    +0.000 N 
ATOM     81  C54 UNL A   1      44.213  25.975  29.094  1.00  0.00    +0.000 C 
ATOM     82  C55 UNL A   1      44.453  26.883  30.046  1.00  0.00    +0.000 C 
ATOM     83  C56 UNL A   1      39.813  27.887  32.432  1.00  0.00    +0.000 C 
ATOM     84  C57 UNL A   1      39.373  27.890  31.173  1.00  0.00    +0.000 C 
ATOM    112  H22 UNL A   1      42.900  31.382  33.723  1.00  0.00    +0.000 H 
ATOM    113  H23 UNL A   1      44.332  31.924  31.545  1.00  0.00    +0.000 H 
ATOM    114  H24 UNL A   1      44.723  28.012  32.483  1.00  0.00    +0.000 H 
ATOM    115  H25 UNL A   1      41.438  27.665  24.987  1.00  0.00    +0.000 H 
ATOM    116  H26 UNL A   1      39.925  29.326  26.191  1.00  0.00    +0.000 H 
ATOM    117  H27 UNL A   1      42.596  27.869  29.009  1.00  0.00    +0.000 H 
ATOM    118  H28 UNL A   1      43.959  24.978  29.170  1.00  0.00    +0.000 H 
ATOM    119  H29 UNL A   1      44.312  26.708  31.053  1.00  0.00    +0.000 H 
ATOM    120  H30 UNL A   1      39.312  27.465  33.230  1.00  0.00    +0.000 H 
ATOM    121  H31 UNL A   1      38.559  27.405  30.765  1.00  0.00    +0.000 H 
ENDROOT
BRANCH   28   27
ATOM    122  H32 UNL A   1      38.069  27.971  28.096  1.00  0.00    +0.000 H 
ATOM     27  C19 UNL A   1      38.861  29.781  28.833  1.00  0.00    +0.000 C 
ATOM    110  H20 UNL A   1      37.002  32.530  29.278  1.00  0.00    +0.000 H 
ATOM    111  H21 UNL A   1      39.262  31.678  29.699  1.00  0.00    +0.000 H 
ATOM     85  C58 UNL A   1      37.928  28.990  28.185  1.00  0.00    +0.000 C 
ATOM     86  C59 UNL A   1      36.823  29.588  27.669  1.00  0.00    +0.000 C 
ATOM     24  C16 UNL A   1      36.420  30.817  28.172  1.00  0.00    +0.000 C 
ATOM     25  C17 UNL A   1      37.291  31.601  28.934  1.00  0.00    +0.000 C 
ATOM     26  C18 UNL A   1      38.559  31.096  29.217  1.00  0.00    +0.000 C 
ATOM    123  H33 UNL A   1      36.289  29.134  26.912  1.00  0.00    +0.000 H 
BRANCH   24   22
ATOM     22  C15 UNL A   1      35.021  31.195  27.903  1.00  0.00    +0.000 C 
ATOM     23  O3  UNL A   1      34.681  32.361  27.902  1.00  0.00    +0.000 O 
BRANCH   22   21
ATOM    109  H19 UNL A   1      34.344  29.287  28.005  1.00  0.00    +0.000 H 
ATOM     21  N5  UNL A   1      34.122  30.170  27.632  1.00  0.00    +0.000 N 
BRANCH   21   20
ATOM    108  H18 UNL A   1      33.102  30.748  25.933  1.00  0.00    +0.000 H 
ATOM    107  H17 UNL A   1      32.154  30.798  27.424  1.00  0.00    +0.000 H 
ATOM     20  C14 UNL A   1      32.879  30.255  26.856  1.00  0.00    +0.000 C 
BRANCH   20   19
ATOM    105  H15 UNL A   1      32.289  28.301  27.422  1.00  0.00    +0.000 H 
ATOM    106  H16 UNL A   1      31.334  29.032  26.121  1.00  0.00    +0.000 H 
ATOM     19  C13 UNL A   1      32.313  28.886  26.526  1.00  0.00    +0.000 C 
BRANCH   19   18
ATOM     18  C12 UNL A   1      33.141  28.133  25.473  1.00  0.00    +0.000 C 
ATOM    103  H13 UNL A   1      32.472  27.805  24.705  1.00  0.00    +0.000 H 
ATOM    104  H14 UNL A   1      33.884  28.828  25.142  1.00  0.00    +0.000 H 
BRANCH   18   17
ATOM     17  C11 UNL A   1      33.920  26.905  25.975  1.00  0.00    +0.000 C 
ATOM    101  H11 UNL A   1      34.826  27.250  26.428  1.00  0.00    +0.000 H 
ATOM    102  H12 UNL A   1      33.267  26.396  26.652  1.00  0.00    +0.000 H 
BRANCH   17   16
ATOM     99  H9  UNL A   1      33.409  25.620  24.351  1.00  0.00    +0.000 H 
ATOM    100  H10 UNL A   1      35.033  26.328  24.268  1.00  0.00    +0.000 H 
ATOM     16  C10 UNL A   1      34.293  25.877  24.896  1.00  0.00    +0.000 C 
BRANCH   16   15
ATOM     97  H7  UNL A   1      35.293  24.000  24.674  1.00  0.00    +0.000 H 
ATOM     98  H8  UNL A   1      35.686  24.855  26.152  1.00  0.00    +0.000 H 
ATOM     15  C9  UNL A   1      34.901  24.596  25.472  1.00  0.00    +0.000 C 
BRANCH   15   14
ATOM     14  N4  UNL A   1      33.886  23.839  26.181  1.00  0.00    +0.000 N 
ATOM     96  H6  UNL A   1      34.122  23.652  27.119  1.00  0.00    +0.000 H 
BRANCH   14   12
ATOM     12  C8  UNL A   1      32.667  23.330  25.813  1.00  0.00    +0.000 C 
ATOM     13  O2  UNL A   1      32.540  22.106  25.800  1.00  0.00    +0.000 O 
BRANCH   12   11
ATOM      8  C4  UNL A   1      29.723  25.974  24.217  1.00  0.00    +0.000 C 
ATOM      9  C5  UNL A   1      30.273  24.981  23.409  1.00  0.00    +0.000 C 
ATOM     10  C6  UNL A   1      31.211  24.109  23.972  1.00  0.00    +0.000 C 
ATOM     11  C7  UNL A   1      31.540  24.181  25.338  1.00  0.00    +0.000 C 
ATOM     87  C60 UNL A   1      30.822  25.055  26.156  1.00  0.00    +0.000 C 
ATOM     88  C61 UNL A   1      29.963  25.996  25.594  1.00  0.00    +0.000 C 
ATOM    124  H34 UNL A   1      30.928  25.004  27.182  1.00  0.00    +0.000 H 
ATOM    125  H35 UNL A   1      29.506  26.705  26.189  1.00  0.00    +0.000 H 
ATOM     94  H4  UNL A   1      29.996  24.891  22.420  1.00  0.00    +0.000 H 
ATOM     95  H5  UNL A   1      31.667  23.401  23.376  1.00  0.00    +0.000 H 
BRANCH    8    7
ATOM      4  C3  UNL A   1      28.297  28.937  22.902  1.00  0.00    +0.000 C 
ATOM      5  N1  UNL A   1      27.216  28.242  23.394  1.00  0.00    +0.000 N 
ATOM      6  N2  UNL A   1      27.618  27.026  23.741  1.00  0.00    +0.000 N 
ATOM      7  N3  UNL A   1      28.957  27.003  23.646  1.00  0.00    +0.000 N 
ATOM     89  C62 UNL A   1      29.422  28.129  22.986  1.00  0.00    +0.000 C 
BRANCH    4    2
ATOM      2  C2  UNL A   1      28.147  30.293  22.387  1.00  0.00    +0.000 C 
ATOM      3  O1  UNL A   1      28.379  30.560  21.209  1.00  0.00    +0.000 O 
BRANCH    2    1
ATOM      1  C1  UNL A   1      27.696  31.381  23.325  1.00  0.00    +0.000 C 
ATOM     91  H1  UNL A   1      27.955  32.336  22.916  1.00  0.00    +0.000 H 
ATOM     92  H2  UNL A   1      28.177  31.259  24.273  1.00  0.00    +0.000 H 
ATOM     93  H3  UNL A   1      26.635  31.325  23.454  1.00  0.00    +0.000 H 
ENDBRANCH    2    1
ENDBRANCH    4    2
BRANCH   89   90
ATOM     90  C63 UNL A   1      30.826  28.255  22.526  1.00  0.00    +0.000 C 
ATOM    126  H36 UNL A   1      31.340  28.966  23.138  1.00  0.00    +0.000 H 
ATOM    127  H37 UNL A   1      30.839  28.586  21.508  1.00  0.00    +0.000 H 
ATOM    128  H38 UNL A   1      31.312  27.305  22.600  1.00  0.00    +0.000 H 
ENDBRANCH   89   90
ENDBRANCH    8    7
ENDBRANCH   12   11
ENDBRANCH   14   12
ENDBRANCH   15   14
ENDBRANCH   16   15
ENDBRANCH   17   16
ENDBRANCH   18   17
ENDBRANCH   19   18
ENDBRANCH   20   19
ENDBRANCH   21   20
ENDBRANCH   22   21
ENDBRANCH   24   22
ENDBRANCH   28   27
BRANCH   32   33
ATOM     33  C24 UNL A   1      42.327  27.229  34.311  1.00  0.00    +0.000 C 
ATOM     34  C25 UNL A   1      41.948  27.335  35.665  1.00  0.00    +0.000 C 
ATOM     35  F1  UNL A   1      41.182  28.355  36.082  1.00  0.00    +0.000 F 
ATOM     36  C26 UNL A   1      42.417  26.448  36.636  1.00  0.00    +0.000 C 
ATOM     37  F2  UNL A   1      42.131  26.664  37.928  1.00  0.00    +0.000 F 
ATOM     38  C27 UNL A   1      43.231  25.388  36.284  1.00  0.00    +0.000 C 
ATOM     39  F3  UNL A   1      43.733  24.573  37.220  1.00  0.00    +0.000 F 
ATOM     40  C28 UNL A   1      43.561  25.204  34.958  1.00  0.00    +0.000 C 
ATOM     41  F4  UNL A   1      44.360  24.190  34.597  1.00  0.00    +0.000 F 
ATOM     42  C29 UNL A   1      43.138  26.118  33.995  1.00  0.00    +0.000 C 
ATOM     43  F5  UNL A   1      43.644  25.927  32.771  1.00  0.00    +0.000 F 
ENDBRANCH   32   33
BRANCH   49   50
ATOM     50  C35 UNL A   1      45.328  30.548  29.107  1.00  0.00    +0.000 C 
ATOM     51  C36 UNL A   1      44.391  31.273  28.349  1.00  0.00    +0.000 C 
ATOM     52  F6  UNL A   1      43.095  30.941  28.363  1.00  0.00    +0.000 F 
ATOM     53  C37 UNL A   1      44.762  32.396  27.609  1.00  0.00    +0.000 C 
ATOM     54  F7  UNL A   1      43.845  33.063  26.892  1.00  0.00    +0.000 F 
ATOM     55  C38 UNL A   1      46.070  32.845  27.644  1.00  0.00    +0.000 C 
ATOM     56  F8  UNL A   1      46.423  33.948  26.968  1.00  0.00    +0.000 F 
ATOM     57  C39 UNL A   1      47.009  32.165  28.404  1.00  0.00    +0.000 C 
ATOM     58  F9  UNL A   1      48.265  32.624  28.482  1.00  0.00    +0.000 F 
ATOM     59  C40 UNL A   1      46.645  31.024  29.116  1.00  0.00    +0.000 C 
ATOM     60  F10 UNL A   1      47.574  30.409  29.864  1.00  0.00    +0.000 F 
ENDBRANCH   49   50
BRANCH   64   65
ATOM     65  C44 UNL A   1      43.605  25.404  25.879  1.00  0.00    +0.000 C 
ATOM     66  C45 UNL A   1      44.777  25.111  25.163  1.00  0.00    +0.000 C 
ATOM     67  F11 UNL A   1      45.764  26.016  25.092  1.00  0.00    +0.000 F 
ATOM     68  C46 UNL A   1      44.980  23.860  24.569  1.00  0.00    +0.000 C 
ATOM     69  F12 UNL A   1      46.134  23.598  23.939  1.00  0.00    +0.000 F 
ATOM     70  C47 UNL A   1      44.017  22.869  24.674  1.00  0.00    +0.000 C 
ATOM     71  F13 UNL A   1      44.237  21.651  24.159  1.00  0.00    +0.000 F 
ATOM     72  C48 UNL A   1      42.843  23.133  25.354  1.00  0.00    +0.000 C 
ATOM     73  F14 UNL A   1      41.921  22.171  25.499  1.00  0.00    +0.000 F 
ATOM     74  C49 UNL A   1      42.640  24.380  25.947  1.00  0.00    +0.000 C 
ATOM     75  F15 UNL A   1      41.522  24.540  26.671  1.00  0.00    +0.000 F 
ENDBRANCH   64   65
TORSDOF 19
ENDMDL
MODEL 3
REMARK VINA RESULT:     -11.7      4.918      8.378
ROOT
ATOM     28  C20 UNL A   1      40.681  27.979  28.690  1.00  0.00    +0.000 C 
ATOM     29  C21 UNL A   1      41.807  28.772  28.143  1.00  0.00    +0.000 C 
ATOM     30  N6  UNL A   1      42.855  29.185  28.772  1.00  0.00    +0.000 N 
ATOM     31  C22 UNL A   1      43.594  29.917  27.848  1.00  0.00    +0.000 C 
ATOM     32  C23 UNL A   1      44.464  30.883  28.256  1.00  0.00    +0.000 C 
ATOM     44  C30 UNL A   1      44.749  30.754  29.665  1.00  0.00    +0.000 C 
ATOM     45  C31 UNL A   1      45.348  29.783  30.442  1.00  0.00    +0.000 C 
ATOM     46  C32 UNL A   1      44.571  29.738  31.638  1.00  0.00    +0.000 C 
ATOM     47  C33 UNL A   1      43.598  30.736  31.557  1.00  0.00    +0.000 C 
ATOM     48  N7  UNL A   1      44.037  31.541  30.536  1.00  0.00    +0.000 N 
ATOM     49  C34 UNL A   1      42.350  30.942  32.258  1.00  0.00    +0.000 C 
ATOM     61  C41 UNL A   1      41.325  31.725  31.810  1.00  0.00    +0.000 C 
ATOM     62  N8  UNL A   1      40.037  31.576  32.307  1.00  0.00    +0.000 N 
ATOM     63  C42 UNL A   1      39.258  31.992  31.344  1.00  0.00    +0.000 C 
ATOM     64  C43 UNL A   1      37.997  31.297  30.967  1.00  0.00    +0.000 C 
ATOM     76  C50 UNL A   1      38.359  30.081  30.488  1.00  0.00    +0.000 C 
ATOM     77  C51 UNL A   1      37.589  28.872  30.323  1.00  0.00    +0.000 C 
ATOM     78  C52 UNL A   1      38.405  27.920  29.829  1.00  0.00    +0.000 C 
ATOM     79  C53 UNL A   1      39.704  28.508  29.465  1.00  0.00    +0.000 C 
ATOM     80  N9  UNL A   1      39.646  29.772  29.995  1.00  0.00    +0.000 N 
ATOM     81  C54 UNL A   1      39.897  32.810  30.326  1.00  0.00    +0.000 C 
ATOM     82  C55 UNL A   1      41.175  32.531  30.601  1.00  0.00    +0.000 C 
ATOM     83  C56 UNL A   1      43.028  29.624  26.558  1.00  0.00    +0.000 C 
ATOM     84  C57 UNL A   1      41.849  29.015  26.693  1.00  0.00    +0.000 C 
ATOM    112  H22 UNL A   1      46.177  29.214  30.209  1.00  0.00    +0.000 H 
ATOM    113  H23 UNL A   1      44.704  29.083  32.424  1.00  0.00    +0.000 H 
ATOM    114  H24 UNL A   1      43.870  32.507  30.445  1.00  0.00    +0.000 H 
ATOM    115  H25 UNL A   1      36.587  28.757  30.544  1.00  0.00    +0.000 H 
ATOM    116  H26 UNL A   1      38.156  26.923  29.722  1.00  0.00    +0.000 H 
ATOM    117  H27 UNL A   1      40.411  30.391  30.026  1.00  0.00    +0.000 H 
ATOM    118  H28 UNL A   1      39.485  33.425  29.605  1.00  0.00    +0.000 H 
ATOM    119  H29 UNL A   1      41.967  32.850  30.022  1.00  0.00    +0.000 H 
ATOM    120  H30 UNL A   1      43.473  29.853  25.655  1.00  0.00    +0.000 H 
ATOM    121  H31 UNL A   1      41.151  28.777  25.970  1.00  0.00    +0.000 H 
ENDROOT
BRANCH   28   27
ATOM    122  H32 UNL A   1      41.569  25.797  29.736  1.00  0.00    +0.000 H 
ATOM     27  C19 UNL A   1      40.534  26.655  28.111  1.00  0.00    +0.000 C 
ATOM    110  H20 UNL A   1      39.048  24.826  25.733  1.00  0.00    +0.000 H 
ATOM    111  H21 UNL A   1      39.285  27.153  26.468  1.00  0.00    +0.000 H 
ATOM     85  C58 UNL A   1      41.189  25.641  28.789  1.00  0.00    +0.000 C 
ATOM     86  C59 UNL A   1      41.319  24.435  28.176  1.00  0.00    +0.000 C 
ATOM     24  C16 UNL A   1      40.444  24.096  27.154  1.00  0.00    +0.000 C 
ATOM     25  C17 UNL A   1      39.673  25.073  26.517  1.00  0.00    +0.000 C 
ATOM     26  C18 UNL A   1      39.769  26.389  26.966  1.00  0.00    +0.000 C 
ATOM    123  H33 UNL A   1      42.060  23.778  28.468  1.00  0.00    +0.000 H 
BRANCH   24   22
ATOM     22  C15 UNL A   1      40.346  22.660  26.841  1.00  0.00    +0.000 C 
ATOM     23  O3  UNL A   1      39.358  22.208  26.295  1.00  0.00    +0.000 O 
BRANCH   22   21
ATOM    109  H19 UNL A   1      41.717  21.883  28.115  1.00  0.00    +0.000 H 
ATOM     21  N5  UNL A   1      41.429  21.857  27.174  1.00  0.00    +0.000 N 
BRANCH   21   20
ATOM    108  H18 UNL A   1      41.538  20.646  25.505  1.00  0.00    +0.000 H 
ATOM    107  H17 UNL A   1      42.565  20.147  26.855  1.00  0.00    +0.000 H 
ATOM     20  C14 UNL A   1      42.194  20.973  26.285  1.00  0.00    +0.000 C 
BRANCH   20   19
ATOM    105  H15 UNL A   1      44.074  20.950  25.311  1.00  0.00    +0.000 H 
ATOM    106  H16 UNL A   1      42.984  22.258  24.820  1.00  0.00    +0.000 H 
ATOM     19  C13 UNL A   1      43.367  21.685  25.638  1.00  0.00    +0.000 C 
BRANCH   19   18
ATOM     18  C12 UNL A   1      44.077  22.659  26.590  1.00  0.00    +0.000 C 
ATOM    103  H13 UNL A   1      43.357  23.006  27.300  1.00  0.00    +0.000 H 
ATOM    104  H14 UNL A   1      44.885  22.103  27.019  1.00  0.00    +0.000 H 
BRANCH   18   17
ATOM     17  C11 UNL A   1      44.728  23.892  25.937  1.00  0.00    +0.000 C 
ATOM    101  H11 UNL A   1      45.466  24.271  26.612  1.00  0.00    +0.000 H 
ATOM    102  H12 UNL A   1      45.128  23.555  25.004  1.00  0.00    +0.000 H 
BRANCH   17   16
ATOM     99  H9  UNL A   1      43.267  24.803  24.677  1.00  0.00    +0.000 H 
ATOM    100  H10 UNL A   1      43.078  25.132  26.410  1.00  0.00    +0.000 H 
ATOM     16  C10 UNL A   1      43.765  25.038  25.595  1.00  0.00    +0.000 C 
BRANCH   16   15
ATOM     97  H7  UNL A   1      44.718  26.538  24.405  1.00  0.00    +0.000 H 
ATOM     98  H8  UNL A   1      43.818  27.166  25.770  1.00  0.00    +0.000 H 
ATOM     15  C9  UNL A   1      44.471  26.387  25.434  1.00  0.00    +0.000 C 
BRANCH   15   14
ATOM     14  N4  UNL A   1      45.686  26.410  26.228  1.00  0.00    +0.000 N 
ATOM     96  H6  UNL A   1      46.389  25.813  25.884  1.00  0.00    +0.000 H 
BRANCH   14   12
ATOM     12  C8  UNL A   1      46.055  27.093  27.358  1.00  0.00    +0.000 C 
ATOM     13  O2  UNL A   1      46.648  28.162  27.212  1.00  0.00    +0.000 O 
BRANCH   12   11
ATOM      8  C4  UNL A   1      45.332  25.927  31.399  1.00  0.00    +0.000 C 
ATOM      9  C5  UNL A   1      44.264  26.060  30.514  1.00  0.00    +0.000 C 
ATOM     10  C6  UNL A   1      44.537  26.410  29.188  1.00  0.00    +0.000 C 
ATOM     11  C7  UNL A   1      45.861  26.555  28.734  1.00  0.00    +0.000 C 
ATOM     87  C60 UNL A   1      46.906  26.219  29.596  1.00  0.00    +0.000 C 
ATOM     88  C61 UNL A   1      46.652  25.969  30.942  1.00  0.00    +0.000 C 
ATOM    124  H34 UNL A   1      47.871  26.155  29.235  1.00  0.00    +0.000 H 
ATOM    125  H35 UNL A   1      47.434  25.815  31.600  1.00  0.00    +0.000 H 
ATOM     94  H4  UNL A   1      43.294  25.904  30.830  1.00  0.00    +0.000 H 
ATOM     95  H5  UNL A   1      43.755  26.564  28.532  1.00  0.00    +0.000 H 
BRANCH    8    7
ATOM      4  C3  UNL A   1      44.243  25.242  34.698  1.00  0.00    +0.000 C 
ATOM      5  N1  UNL A   1      44.770  26.510  34.782  1.00  0.00    +0.000 N 
ATOM      6  N2  UNL A   1      45.381  26.790  33.639  1.00  0.00    +0.000 N 
ATOM      7  N3  UNL A   1      45.094  25.801  32.777  1.00  0.00    +0.000 N 
ATOM     89  C62 UNL A   1      44.504  24.734  33.434  1.00  0.00    +0.000 C 
BRANCH    4    2
ATOM      2  C2  UNL A   1      43.557  24.637  35.834  1.00  0.00    +0.000 C 
ATOM      3  O1  UNL A   1      44.112  24.515  36.926  1.00  0.00    +0.000 O 
BRANCH    2    1
ATOM      1  C1  UNL A   1      42.141  24.157  35.657  1.00  0.00    +0.000 C 
ATOM     91  H1  UNL A   1      41.462  24.942  35.917  1.00  0.00    +0.000 H 
ATOM     92  H2  UNL A   1      41.968  23.313  36.292  1.00  0.00    +0.000 H 
ATOM     93  H3  UNL A   1      41.985  23.873  34.637  1.00  0.00    +0.000 H 
ENDBRANCH    2    1
ENDBRANCH    4    2
BRANCH   89   90
ATOM     90  C63 UNL A   1      44.303  23.416  32.784  1.00  0.00    +0.000 C 
ATOM    126  H36 UNL A   1      43.308  23.358  32.396  1.00  0.00    +0.000 H 
ATOM    127  H37 UNL A   1      44.451  22.638  33.503  1.00  0.00    +0.000 H 
ATOM    128  H38 UNL A   1      45.005  23.303  31.984  1.00  0.00    +0.000 H 
ENDBRANCH   89   90
ENDBRANCH    8    7
ENDBRANCH   12   11
ENDBRANCH   14   12
ENDBRANCH   15   14
ENDBRANCH   16   15
ENDBRANCH   17   16
ENDBRANCH   18   17
ENDBRANCH   19   18
ENDBRANCH   20   19
ENDBRANCH   21   20
ENDBRANCH   22   21
ENDBRANCH   24   22
ENDBRANCH   28   27
BRANCH   32   33
ATOM     33  C24 UNL A   1      44.781  32.142  27.490  1.00  0.00    +0.000 C 
ATOM     34  C25 UNL A   1      46.024  32.248  26.834  1.00  0.00    +0.000 C 
ATOM     35  F1  UNL A   1      46.803  31.168  26.667  1.00  0.00    +0.000 F 
ATOM     36  C26 UNL A   1      46.537  33.478  26.414  1.00  0.00    +0.000 C 
ATOM     37  F2  UNL A   1      47.778  33.545  25.911  1.00  0.00    +0.000 F 
ATOM     38  C27 UNL A   1      45.802  34.637  26.577  1.00  0.00    +0.000 C 
ATOM     39  F3  UNL A   1      46.316  35.824  26.233  1.00  0.00    +0.000 F 
ATOM     40  C28 UNL A   1      44.547  34.565  27.143  1.00  0.00    +0.000 C 
ATOM     41  F4  UNL A   1      43.823  35.679  27.321  1.00  0.00    +0.000 F 
ATOM     42  C29 UNL A   1      44.056  33.348  27.611  1.00  0.00    +0.000 C 
ATOM     43  F5  UNL A   1      42.898  33.422  28.278  1.00  0.00    +0.000 F 
ENDBRANCH   32   33
BRANCH   49   50
ATOM     50  C35 UNL A   1      42.091  30.056  33.449  1.00  0.00    +0.000 C 
ATOM     51  C36 UNL A   1      41.627  28.732  33.359  1.00  0.00    +0.000 C 
ATOM     52  F6  UNL A   1      41.326  28.191  32.173  1.00  0.00    +0.000 F 
ATOM     53  C37 UNL A   1      41.522  27.917  34.487  1.00  0.00    +0.000 C 
ATOM     54  F7  UNL A   1      41.071  26.659  34.368  1.00  0.00    +0.000 F 
ATOM     55  C38 UNL A   1      41.920  28.393  35.723  1.00  0.00    +0.000 C 
ATOM     56  F8  UNL A   1      41.861  27.600  36.802  1.00  0.00    +0.000 F 
ATOM     57  C39 UNL A   1      42.406  29.686  35.836  1.00  0.00    +0.000 C 
ATOM     58  F9  UNL A   1      42.839  30.136  37.021  1.00  0.00    +0.000 F 
ATOM     59  C40 UNL A   1      42.479  30.511  34.716  1.00  0.00    +0.000 C 
ATOM     60  F10 UNL A   1      42.982  31.746  34.858  1.00  0.00    +0.000 F 
ENDBRANCH   49   50
BRANCH   64   65
ATOM     65  C44 UNL A   1      36.708  32.002  30.787  1.00  0.00    +0.000 C 
ATOM     66  C45 UNL A   1      35.844  32.237  31.869  1.00  0.00    +0.000 C 
ATOM     67  F11 UNL A   1      36.066  31.638  33.047  1.00  0.00    +0.000 F 
ATOM     68  C46 UNL A   1      34.782  33.144  31.775  1.00  0.00    +0.000 C 
ATOM     69  F12 UNL A   1      34.012  33.384  32.846  1.00  0.00    +0.000 F 
ATOM     70  C47 UNL A   1      34.555  33.839  30.599  1.00  0.00    +0.000 C 
ATOM     71  F13 UNL A   1      33.577  34.753  30.528  1.00  0.00    +0.000 F 
ATOM     72  C48 UNL A   1      35.373  33.614  29.508  1.00  0.00    +0.000 C 
ATOM     73  F14 UNL A   1      35.190  34.309  28.377  1.00  0.00    +0.000 F 
ATOM     74  C49 UNL A   1      36.433  32.710  29.600  1.00  0.00    +0.000 C 
ATOM     75  F15 UNL A   1      37.246  32.608  28.538  1.00  0.00    +0.000 F 
ENDBRANCH   64   65
TORSDOF 19
ENDMDL
MODEL 4
REMARK VINA RESULT:     -11.6      3.267      9.499
ROOT
ATOM     28  C20 UNL A   1      40.214  29.138  29.002  1.00  0.00    +0.000 C 
ATOM     29  C21 UNL A   1      40.406  28.736  30.416  1.00  0.00    +0.000 C 
ATOM     30  N6  UNL A   1      41.240  29.232  31.267  1.00  0.00    +0.000 N 
ATOM     31  C22 UNL A   1      41.073  28.501  32.439  1.00  0.00    +0.000 C 
ATOM     32  C23 UNL A   1      42.080  28.404  33.352  1.00  0.00    +0.000 C 
ATOM     44  C30 UNL A   1      43.090  29.404  33.109  1.00  0.00    +0.000 C 
ATOM     45  C31 UNL A   1      43.105  30.785  33.130  1.00  0.00    +0.000 C 
ATOM     46  C32 UNL A   1      43.918  31.161  32.020  1.00  0.00    +0.000 C 
ATOM     47  C33 UNL A   1      44.418  29.995  31.437  1.00  0.00    +0.000 C 
ATOM     48  N7  UNL A   1      44.199  29.032  32.389  1.00  0.00    +0.000 N 
ATOM     49  C34 UNL A   1      44.977  29.718  30.133  1.00  0.00    +0.000 C 
ATOM     61  C41 UNL A   1      45.055  28.479  29.565  1.00  0.00    +0.000 C 
ATOM     62  N8  UNL A   1      45.227  28.324  28.196  1.00  0.00    +0.000 N 
ATOM     63  C42 UNL A   1      44.698  27.160  27.923  1.00  0.00    +0.000 C 
ATOM     64  C43 UNL A   1      43.856  26.917  26.720  1.00  0.00    +0.000 C 
ATOM     76  C50 UNL A   1      42.739  27.670  26.877  1.00  0.00    +0.000 C 
ATOM     77  C51 UNL A   1      41.768  28.119  25.908  1.00  0.00    +0.000 C 
ATOM     78  C52 UNL A   1      40.848  28.864  26.552  1.00  0.00    +0.000 C 
ATOM     79  C53 UNL A   1      41.061  28.785  28.005  1.00  0.00    +0.000 C 
ATOM     80  N9  UNL A   1      42.274  28.154  28.120  1.00  0.00    +0.000 N 
ATOM     81  C54 UNL A   1      44.507  26.273  29.059  1.00  0.00    +0.000 C 
ATOM     82  C55 UNL A   1      44.644  27.161  30.048  1.00  0.00    +0.000 C 
ATOM     83  C56 UNL A   1      39.855  27.751  32.275  1.00  0.00    +0.000 C 
ATOM     84  C57 UNL A   1      39.465  27.767  30.999  1.00  0.00    +0.000 C 
ATOM    112  H22 UNL A   1      42.631  31.408  33.802  1.00  0.00    +0.000 H 
ATOM    113  H23 UNL A   1      44.104  32.126  31.703  1.00  0.00    +0.000 H 
ATOM    114  H24 UNL A   1      44.738  28.220  32.530  1.00  0.00    +0.000 H 
ATOM    115  H25 UNL A   1      41.777  27.905  24.898  1.00  0.00    +0.000 H 
ATOM    116  H26 UNL A   1      40.103  29.412  26.092  1.00  0.00    +0.000 H 
ATOM    117  H27 UNL A   1      42.762  28.049  28.969  1.00  0.00    +0.000 H 
ATOM    118  H28 UNL A   1      44.321  25.258  29.092  1.00  0.00    +0.000 H 
ATOM    119  H29 UNL A   1      44.477  26.941  31.043  1.00  0.00    +0.000 H 
ATOM    120  H30 UNL A   1      39.356  27.267  33.038  1.00  0.00    +0.000 H 
ATOM    121  H31 UNL A   1      38.704  27.240  30.543  1.00  0.00    +0.000 H 
ENDROOT
BRANCH   28   27
ATOM    122  H32 UNL A   1      39.545  31.603  29.346  1.00  0.00    +0.000 H 
ATOM     27  C19 UNL A   1      38.908  29.698  28.703  1.00  0.00    +0.000 C 
ATOM    110  H20 UNL A   1      35.941  29.170  27.246  1.00  0.00    +0.000 H 
ATOM    111  H21 UNL A   1      38.024  27.998  27.789  1.00  0.00    +0.000 H 
ATOM     85  C58 UNL A   1      38.737  31.021  29.073  1.00  0.00    +0.000 C 
ATOM     86  C59 UNL A   1      37.479  31.533  29.069  1.00  0.00    +0.000 C 
ATOM     24  C16 UNL A   1      36.502  30.927  28.291  1.00  0.00    +0.000 C 
ATOM     25  C17 UNL A   1      36.682  29.633  27.795  1.00  0.00    +0.000 C 
ATOM     26  C18 UNL A   1      37.886  28.984  28.060  1.00  0.00    +0.000 C 
ATOM    123  H33 UNL A   1      37.251  32.364  29.638  1.00  0.00    +0.000 H 
BRANCH   24   22
ATOM     22  C15 UNL A   1      35.321  31.752  27.984  1.00  0.00    +0.000 C 
ATOM     23  O3  UNL A   1      35.442  32.914  27.651  1.00  0.00    +0.000 O 
BRANCH   22   21
ATOM    109  H19 UNL A   1      33.654  31.138  28.960  1.00  0.00    +0.000 H 
ATOM     21  N5  UNL A   1      34.075  31.142  28.071  1.00  0.00    +0.000 N 
BRANCH   21   20
ATOM    108  H18 UNL A   1      33.918  30.529  26.106  1.00  0.00    +0.000 H 
ATOM    107  H17 UNL A   1      32.398  31.039  26.850  1.00  0.00    +0.000 H 
ATOM     20  C14 UNL A   1      33.315  30.505  26.989  1.00  0.00    +0.000 C 
BRANCH   20   19
ATOM    105  H15 UNL A   1      33.477  28.779  28.204  1.00  0.00    +0.000 H 
ATOM    106  H16 UNL A   1      31.928  28.969  27.365  1.00  0.00    +0.000 H 
ATOM     19  C13 UNL A   1      32.992  29.053  27.291  1.00  0.00    +0.000 C 
BRANCH   19   18
ATOM     18  C12 UNL A   1      33.454  28.094  26.183  1.00  0.00    +0.000 C 
ATOM    103  H13 UNL A   1      34.255  27.503  26.575  1.00  0.00    +0.000 H 
ATOM    104  H14 UNL A   1      32.586  27.531  25.911  1.00  0.00    +0.000 H 
BRANCH   18   17
ATOM     17  C11 UNL A   1      33.945  28.749  24.880  1.00  0.00    +0.000 C 
ATOM    101  H11 UNL A   1      34.044  29.799  25.056  1.00  0.00    +0.000 H 
ATOM    102  H12 UNL A   1      34.867  28.265  24.635  1.00  0.00    +0.000 H 
BRANCH   17   16
ATOM     99  H9  UNL A   1      32.016  28.513  24.002  1.00  0.00    +0.000 H 
ATOM    100  H10 UNL A   1      33.196  29.384  23.005  1.00  0.00    +0.000 H 
ATOM     16  C10 UNL A   1      33.030  28.557  23.663  1.00  0.00    +0.000 C 
BRANCH   16   15
ATOM     97  H7  UNL A   1      33.308  27.492  21.829  1.00  0.00    +0.000 H 
ATOM     98  H8  UNL A   1      34.309  26.924  23.149  1.00  0.00    +0.000 H 
ATOM     15  C9  UNL A   1      33.336  27.279  22.876  1.00  0.00    +0.000 C 
BRANCH   15   14
ATOM     14  N4  UNL A   1      32.353  26.258  23.185  1.00  0.00    +0.000 N 
ATOM     96  H6  UNL A   1      31.489  26.397  22.734  1.00  0.00    +0.000 H 
BRANCH   14   12
ATOM     12  C8  UNL A   1      32.380  25.139  23.977  1.00  0.00    +0.000 C 
ATOM     13  O2  UNL A   1      31.319  24.771  24.482  1.00  0.00    +0.000 O 
BRANCH   12   11
ATOM      8  C4  UNL A   1      36.111  23.443  25.166  1.00  0.00    +0.000 C 
ATOM      9  C5  UNL A   1      35.132  23.704  26.123  1.00  0.00    +0.000 C 
ATOM     10  C6  UNL A   1      33.907  24.228  25.697  1.00  0.00    +0.000 C 
ATOM     11  C7  UNL A   1      33.637  24.421  24.329  1.00  0.00    +0.000 C 
ATOM     87  C60 UNL A   1      34.564  23.962  23.391  1.00  0.00    +0.000 C 
ATOM     88  C61 UNL A   1      35.824  23.534  23.801  1.00  0.00    +0.000 C 
ATOM    124  H34 UNL A   1      34.314  23.939  22.390  1.00  0.00    +0.000 H 
ATOM    125  H35 UNL A   1      36.542  23.286  23.103  1.00  0.00    +0.000 H 
ATOM     94  H4  UNL A   1      35.306  23.515  27.122  1.00  0.00    +0.000 H 
ATOM     95  H5  UNL A   1      33.191  24.477  26.396  1.00  0.00    +0.000 H 
BRANCH    8    7
ATOM      4  C3  UNL A   1      39.175  22.090  26.316  1.00  0.00    +0.000 C 
ATOM      5  N1  UNL A   1      39.264  23.426  26.636  1.00  0.00    +0.000 N 
ATOM      6  N2  UNL A   1      38.244  24.063  26.077  1.00  0.00    +0.000 N 
ATOM      7  N3  UNL A   1      37.421  23.133  25.565  1.00  0.00    +0.000 N 
ATOM     89  C62 UNL A   1      38.029  21.889  25.561  1.00  0.00    +0.000 C 
BRANCH    4    2
ATOM      2  C2  UNL A   1      40.197  21.144  26.749  1.00  0.00    +0.000 C 
ATOM      3  O1  UNL A   1      40.328  20.049  26.203  1.00  0.00    +0.000 O 
BRANCH    2    1
ATOM      1  C1  UNL A   1      41.107  21.526  27.886  1.00  0.00    +0.000 C 
ATOM     91  H1  UNL A   1      42.095  21.694  27.512  1.00  0.00    +0.000 H 
ATOM     92  H2  UNL A   1      41.130  20.735  28.607  1.00  0.00    +0.000 H 
ATOM     93  H3  UNL A   1      40.744  22.420  28.349  1.00  0.00    +0.000 H 
ENDBRANCH    2    1
ENDBRANCH    4    2
BRANCH   89   90
ATOM     90  C63 UNL A   1      37.455  20.728  24.837  1.00  0.00    +0.000 C 
ATOM    126  H36 UNL A   1      36.647  21.058  24.218  1.00  0.00    +0.000 H 
ATOM    127  H37 UNL A   1      37.092  20.012  25.544  1.00  0.00    +0.000 H 
ATOM    128  H38 UNL A   1      38.211  20.279  24.228  1.00  0.00    +0.000 H 
ENDBRANCH   89   90
ENDBRANCH    8    7
ENDBRANCH   12   11
ENDBRANCH   14   12
ENDBRANCH   15   14
ENDBRANCH   16   15
ENDBRANCH   17   16
ENDBRANCH   18   17
ENDBRANCH   19   18
ENDBRANCH   20   19
ENDBRANCH   21   20
ENDBRANCH   22   21
ENDBRANCH   24   22
ENDBRANCH   28   27
BRANCH   32   33
ATOM     33  C24 UNL A   1      42.336  27.207  34.232  1.00  0.00    +0.000 C 
ATOM     34  C25 UNL A   1      41.997  27.279  35.599  1.00  0.00    +0.000 C 
ATOM     35  F1  UNL A   1      41.225  28.276  36.059  1.00  0.00    +0.000 F 
ATOM     36  C26 UNL A   1      42.512  26.382  36.537  1.00  0.00    +0.000 C 
ATOM     37  F2  UNL A   1      42.262  26.567  37.841  1.00  0.00    +0.000 F 
ATOM     38  C27 UNL A   1      43.333  25.344  36.139  1.00  0.00    +0.000 C 
ATOM     39  F3  UNL A   1      43.878  24.521  37.043  1.00  0.00    +0.000 F 
ATOM     40  C28 UNL A   1      43.626  25.193  34.800  1.00  0.00    +0.000 C 
ATOM     41  F4  UNL A   1      44.431  24.201  34.395  1.00  0.00    +0.000 F 
ATOM     42  C29 UNL A   1      43.157  26.117  33.869  1.00  0.00    +0.000 C 
ATOM     43  F5  UNL A   1      43.629  25.960  32.627  1.00  0.00    +0.000 F 
ENDBRANCH   32   33
BRANCH   49   50
ATOM     50  C35 UNL A   1      45.288  30.910  29.264  1.00  0.00    +0.000 C 
ATOM     51  C36 UNL A   1      44.318  31.646  28.560  1.00  0.00    +0.000 C 
ATOM     52  F6  UNL A   1      43.032  31.278  28.580  1.00  0.00    +0.000 F 
ATOM     53  C37 UNL A   1      44.646  32.813  27.871  1.00  0.00    +0.000 C 
ATOM     54  F7  UNL A   1      43.699  33.490  27.205  1.00  0.00    +0.000 F 
ATOM     55  C38 UNL A   1      45.942  33.296  27.907  1.00  0.00    +0.000 C 
ATOM     56  F8  UNL A   1      46.253  34.440  27.282  1.00  0.00    +0.000 F 
ATOM     57  C39 UNL A   1      46.912  32.605  28.615  1.00  0.00    +0.000 C 
ATOM     58  F9  UNL A   1      48.157  33.093  28.694  1.00  0.00    +0.000 F 
ATOM     59  C40 UNL A   1      46.592  31.420  29.275  1.00  0.00    +0.000 C 
ATOM     60  F10 UNL A   1      47.551  30.794  29.974  1.00  0.00    +0.000 F 
ENDBRANCH   49   50
BRANCH   64   65
ATOM     65  C44 UNL A   1      44.065  25.773  25.805  1.00  0.00    +0.000 C 
ATOM     66  C45 UNL A   1      45.329  25.488  25.265  1.00  0.00    +0.000 C 
ATOM     67  F11 UNL A   1      46.328  26.374  25.391  1.00  0.00    +0.000 F 
ATOM     68  C46 UNL A   1      45.604  24.263  24.647  1.00  0.00    +0.000 C 
ATOM     69  F12 UNL A   1      46.838  24.005  24.191  1.00  0.00    +0.000 F 
ATOM     70  C47 UNL A   1      44.623  23.289  24.554  1.00  0.00    +0.000 C 
ATOM     71  F13 UNL A   1      44.903  22.092  24.019  1.00  0.00    +0.000 F 
ATOM     72  C48 UNL A   1      43.361  23.546  25.057  1.00  0.00    +0.000 C 
ATOM     73  F14 UNL A   1      42.414  22.598  25.010  1.00  0.00    +0.000 F 
ATOM     74  C49 UNL A   1      43.086  24.768  25.673  1.00  0.00    +0.000 C 
ATOM     75  F15 UNL A   1      41.872  24.918  26.223  1.00  0.00    +0.000 F 
ENDBRANCH   64   65
TORSDOF 19
ENDMDL
MODEL 5
REMARK VINA RESULT:     -11.5      0.757      1.447
ROOT
ATOM     28  C20 UNL A   1      41.217  27.809  28.857  1.00  0.00    +0.000 C 
ATOM     29  C21 UNL A   1      42.345  28.656  28.403  1.00  0.00    +0.000 C 
ATOM     30  N6  UNL A   1      43.337  29.087  29.107  1.00  0.00    +0.000 N 
ATOM     31  C22 UNL A   1      44.104  29.870  28.251  1.00  0.00    +0.000 C 
ATOM     32  C23 UNL A   1      44.912  30.853  28.738  1.00  0.00    +0.000 C 
ATOM     44  C30 UNL A   1      45.115  30.693  30.157  1.00  0.00    +0.000 C 
ATOM     45  C31 UNL A   1      45.700  29.720  30.944  1.00  0.00    +0.000 C 
ATOM     46  C32 UNL A   1      44.853  29.614  32.087  1.00  0.00    +0.000 C 
ATOM     47  C33 UNL A   1      43.851  30.580  31.974  1.00  0.00    +0.000 C 
ATOM     48  N7  UNL A   1      44.322  31.429  31.004  1.00  0.00    +0.000 N 
ATOM     49  C34 UNL A   1      42.557  30.722  32.601  1.00  0.00    +0.000 C 
ATOM     61  C41 UNL A   1      41.533  31.482  32.112  1.00  0.00    +0.000 C 
ATOM     62  N8  UNL A   1      40.223  31.274  32.524  1.00  0.00    +0.000 N 
ATOM     63  C42 UNL A   1      39.490  31.691  31.525  1.00  0.00    +0.000 C 
ATOM     64  C43 UNL A   1      38.280  30.965  31.052  1.00  0.00    +0.000 C 
ATOM     76  C50 UNL A   1      38.715  29.777  30.564  1.00  0.00    +0.000 C 
ATOM     77  C51 UNL A   1      38.000  28.547  30.319  1.00  0.00    +0.000 C 
ATOM     78  C52 UNL A   1      38.879  27.638  29.850  1.00  0.00    +0.000 C 
ATOM     79  C53 UNL A   1      40.175  28.281  29.584  1.00  0.00    +0.000 C 
ATOM     80  N9  UNL A   1      40.040  29.526  30.143  1.00  0.00    +0.000 N 
ATOM     81  C54 UNL A   1      40.160  32.561  30.572  1.00  0.00    +0.000 C 
ATOM     82  C55 UNL A   1      41.428  32.318  30.918  1.00  0.00    +0.000 C 
ATOM     83  C56 UNL A   1      43.629  29.596  26.920  1.00  0.00    +0.000 C 
ATOM     84  C57 UNL A   1      42.466  28.943  26.965  1.00  0.00    +0.000 C 
ATOM    112  H22 UNL A   1      46.561  29.187  30.747  1.00  0.00    +0.000 H 
ATOM    113  H23 UNL A   1      44.962  28.941  32.862  1.00  0.00    +0.000 H 
ATOM    114  H24 UNL A   1      44.127  32.391  30.929  1.00  0.00    +0.000 H 
ATOM    115  H25 UNL A   1      36.992  28.391  30.474  1.00  0.00    +0.000 H 
ATOM    116  H26 UNL A   1      38.673  26.638  29.701  1.00  0.00    +0.000 H 
ATOM    117  H27 UNL A   1      40.778  30.170  30.239  1.00  0.00    +0.000 H 
ATOM    118  H28 UNL A   1      39.771  33.182  29.844  1.00  0.00    +0.000 H 
ATOM    119  H29 UNL A   1      42.243  32.681  30.398  1.00  0.00    +0.000 H 
ATOM    120  H30 UNL A   1      44.119  29.867  26.053  1.00  0.00    +0.000 H 
ATOM    121  H31 UNL A   1      41.823  28.703  26.194  1.00  0.00    +0.000 H 
ENDROOT
BRANCH   28   27
ATOM    122  H32 UNL A   1      42.564  25.744  29.608  1.00  0.00    +0.000 H 
ATOM     27  C19 UNL A   1      41.153  26.498  28.234  1.00  0.00    +0.000 C 
ATOM    110  H20 UNL A   1      39.538  24.556  26.038  1.00  0.00    +0.000 H 
ATOM    111  H21 UNL A   1      39.579  26.866  26.858  1.00  0.00    +0.000 H 
ATOM     85  C58 UNL A   1      42.049  25.568  28.731  1.00  0.00    +0.000 C 
ATOM     86  C59 UNL A   1      42.234  24.415  28.035  1.00  0.00    +0.000 C 
ATOM     24  C16 UNL A   1      41.248  23.988  27.157  1.00  0.00    +0.000 C 
ATOM     25  C17 UNL A   1      40.251  24.864  26.718  1.00  0.00    +0.000 C 
ATOM     26  C18 UNL A   1      40.243  26.163  27.221  1.00  0.00    +0.000 C 
ATOM    123  H33 UNL A   1      43.097  23.863  28.159  1.00  0.00    +0.000 H 
BRANCH   24   22
ATOM     22  C15 UNL A   1      41.294  22.565  26.781  1.00  0.00    +0.000 C 
ATOM     23  O3  UNL A   1      42.320  22.063  26.367  1.00  0.00    +0.000 O 
BRANCH   22   21
ATOM    109  H19 UNL A   1      39.877  21.600  27.863  1.00  0.00    +0.000 H 
ATOM     21  N5  UNL A   1      40.128  21.824  26.939  1.00  0.00    +0.000 N 
BRANCH   21   20
ATOM    108  H18 UNL A   1      38.872  20.373  26.177  1.00  0.00    +0.000 H 
ATOM    107  H17 UNL A   1      39.770  21.291  24.963  1.00  0.00    +0.000 H 
ATOM     20  C14 UNL A   1      39.229  21.338  25.885  1.00  0.00    +0.000 C 
BRANCH   20   19
ATOM    105  H15 UNL A   1      37.401  22.163  26.563  1.00  0.00    +0.000 H 
ATOM    106  H16 UNL A   1      38.387  23.237  25.557  1.00  0.00    +0.000 H 
ATOM     19  C13 UNL A   1      38.024  22.241  25.697  1.00  0.00    +0.000 C 
BRANCH   19   18
ATOM     18  C12 UNL A   1      37.190  21.878  24.459  1.00  0.00    +0.000 C 
ATOM    103  H13 UNL A   1      37.859  21.777  23.631  1.00  0.00    +0.000 H 
ATOM    104  H14 UNL A   1      36.671  20.978  24.717  1.00  0.00    +0.000 H 
BRANCH   18   17
ATOM     17  C11 UNL A   1      36.095  22.884  24.060  1.00  0.00    +0.000 C 
ATOM    101  H11 UNL A   1      36.386  23.339  23.137  1.00  0.00    +0.000 H 
ATOM    102  H12 UNL A   1      35.187  22.323  23.996  1.00  0.00    +0.000 H 
BRANCH   17   16
ATOM     99  H9  UNL A   1      36.729  24.183  25.629  1.00  0.00    +0.000 H 
ATOM    100  H10 UNL A   1      35.520  24.867  24.526  1.00  0.00    +0.000 H 
ATOM     16  C10 UNL A   1      35.830  24.003  25.076  1.00  0.00    +0.000 C 
BRANCH   16   15
ATOM     97  H7  UNL A   1      35.138  23.414  27.012  1.00  0.00    +0.000 H 
ATOM     98  H8  UNL A   1      34.066  24.514  26.168  1.00  0.00    +0.000 H 
ATOM     15  C9  UNL A   1      34.711  23.665  26.064  1.00  0.00    +0.000 C 
BRANCH   15   14
ATOM     14  N4  UNL A   1      33.938  22.539  25.573  1.00  0.00    +0.000 N 
ATOM     96  H6  UNL A   1      34.494  21.793  25.253  1.00  0.00    +0.000 H 
BRANCH   14   12
ATOM     12  C8  UNL A   1      32.591  22.303  25.463  1.00  0.00    +0.000 C 
ATOM     13  O2  UNL A   1      32.202  21.144  25.608  1.00  0.00    +0.000 O 
BRANCH   12   11
ATOM      8  C4  UNL A   1      30.073  25.470  24.109  1.00  0.00    +0.000 C 
ATOM      9  C5  UNL A   1      30.356  24.400  23.262  1.00  0.00    +0.000 C 
ATOM     10  C6  UNL A   1      31.157  23.361  23.748  1.00  0.00    +0.000 C 
ATOM     11  C7  UNL A   1      31.608  23.355  25.081  1.00  0.00    +0.000 C 
ATOM     87  C60 UNL A   1      31.141  24.341  25.952  1.00  0.00    +0.000 C 
ATOM     88  C61 UNL A   1      30.430  25.432  25.460  1.00  0.00    +0.000 C 
ATOM    124  H34 UNL A   1      31.322  24.260  26.965  1.00  0.00    +0.000 H 
ATOM    125  H35 UNL A   1      30.166  26.208  26.088  1.00  0.00    +0.000 H 
ATOM     94  H4  UNL A   1      29.984  24.374  22.301  1.00  0.00    +0.000 H 
ATOM     95  H5  UNL A   1      31.420  22.586  23.119  1.00  0.00    +0.000 H 
BRANCH    8    7
ATOM      4  C3  UNL A   1      29.099  28.682  22.980  1.00  0.00    +0.000 C 
ATOM      5  N1  UNL A   1      27.923  28.114  23.410  1.00  0.00    +0.000 N 
ATOM      6  N2  UNL A   1      28.145  26.834  23.678  1.00  0.00    +0.000 N 
ATOM      7  N3  UNL A   1      29.470  26.631  23.599  1.00  0.00    +0.000 N 
ATOM     89  C62 UNL A   1      30.100  27.723  23.023  1.00  0.00    +0.000 C 
BRANCH    4    2
ATOM      2  C2  UNL A   1      29.150  30.077  22.556  1.00  0.00    +0.000 C 
ATOM      3  O1  UNL A   1      29.431  30.385  21.398  1.00  0.00    +0.000 O 
BRANCH    2    1
ATOM      1  C1  UNL A   1      28.846  31.155  23.564  1.00  0.00    +0.000 C 
ATOM     91  H1  UNL A   1      29.731  31.725  23.754  1.00  0.00    +0.000 H 
ATOM     92  H2  UNL A   1      28.509  30.707  24.475  1.00  0.00    +0.000 H 
ATOM     93  H3  UNL A   1      28.083  31.798  23.179  1.00  0.00    +0.000 H 
ENDBRANCH    2    1
ENDBRANCH    4    2
BRANCH   89   90
ATOM     90  C63 UNL A   1      31.518  27.682  22.590  1.00  0.00    +0.000 C 
ATOM    126  H36 UNL A   1      32.114  27.242  23.362  1.00  0.00    +0.000 H 
ATOM    127  H37 UNL A   1      31.860  28.677  22.399  1.00  0.00    +0.000 H 
ATOM    128  H38 UNL A   1      31.602  27.097  21.698  1.00  0.00    +0.000 H 
ENDBRANCH   89   90
ENDBRANCH    8    7
ENDBRANCH   12   11
ENDBRANCH   14   12
ENDBRANCH   15   14
ENDBRANCH   16   15
ENDBRANCH   17   16
ENDBRANCH   18   17
ENDBRANCH   19   18
ENDBRANCH   20   19
ENDBRANCH   21   20
ENDBRANCH   22   21
ENDBRANCH   24   22
ENDBRANCH   28   27
BRANCH   32   33
ATOM     33  C24 UNL A   1      45.229  32.145  28.027  1.00  0.00    +0.000 C 
ATOM     34  C25 UNL A   1      44.179  33.037  27.730  1.00  0.00    +0.000 C 
ATOM     35  F1  UNL A   1      42.970  32.880  28.291  1.00  0.00    +0.000 F 
ATOM     36  C26 UNL A   1      44.319  34.057  26.786  1.00  0.00    +0.000 C 
ATOM     37  F2  UNL A   1      43.255  34.798  26.446  1.00  0.00    +0.000 F 
ATOM     38  C27 UNL A   1      45.528  34.262  26.150  1.00  0.00    +0.000 C 
ATOM     39  F3  UNL A   1      45.648  35.197  25.200  1.00  0.00    +0.000 F 
ATOM     40  C28 UNL A   1      46.603  33.460  26.470  1.00  0.00    +0.000 C 
ATOM     41  F4  UNL A   1      47.780  33.635  25.855  1.00  0.00    +0.000 F 
ATOM     42  C29 UNL A   1      46.451  32.409  27.372  1.00  0.00    +0.000 C 
ATOM     43  F5  UNL A   1      47.514  31.605  27.489  1.00  0.00    +0.000 F 
ENDBRANCH   32   33
BRANCH   49   50
ATOM     50  C35 UNL A   1      42.257  29.793  33.749  1.00  0.00    +0.000 C 
ATOM     51  C36 UNL A   1      41.832  28.462  33.594  1.00  0.00    +0.000 C 
ATOM     52  F6  UNL A   1      41.607  27.952  32.378  1.00  0.00    +0.000 F 
ATOM     53  C37 UNL A   1      41.688  27.609  34.689  1.00  0.00    +0.000 C 
ATOM     54  F7  UNL A   1      41.275  26.346  34.509  1.00  0.00    +0.000 F 
ATOM     55  C38 UNL A   1      42.008  28.055  35.959  1.00  0.00    +0.000 C 
ATOM     56  F8  UNL A   1      41.913  27.227  37.009  1.00  0.00    +0.000 F 
ATOM     57  C39 UNL A   1      42.456  29.355  36.137  1.00  0.00    +0.000 C 
ATOM     58  F9  UNL A   1      42.815  29.777  37.357  1.00  0.00    +0.000 F 
ATOM     59  C40 UNL A   1      42.566  30.216  35.048  1.00  0.00    +0.000 C 
ATOM     60  F10 UNL A   1      43.031  31.458  35.255  1.00  0.00    +0.000 F 
ENDBRANCH   49   50
BRANCH   64   65
ATOM     65  C44 UNL A   1      36.980  31.630  30.812  1.00  0.00    +0.000 C 
ATOM     66  C45 UNL A   1      36.081  31.882  31.861  1.00  0.00    +0.000 C 
ATOM     67  F11 UNL A   1      36.285  31.331  33.066  1.00  0.00    +0.000 F 
ATOM     68  C46 UNL A   1      35.000  32.757  31.706  1.00  0.00    +0.000 C 
ATOM     69  F12 UNL A   1      34.194  33.016  32.745  1.00  0.00    +0.000 F 
ATOM     70  C47 UNL A   1      34.789  33.404  30.499  1.00  0.00    +0.000 C 
ATOM     71  F13 UNL A   1      33.791  34.290  30.369  1.00  0.00    +0.000 F 
ATOM     72  C48 UNL A   1      35.643  33.161  29.440  1.00  0.00    +0.000 C 
ATOM     73  F14 UNL A   1      35.475  33.811  28.279  1.00  0.00    +0.000 F 
ATOM     74  C49 UNL A   1      36.721  32.288  29.593  1.00  0.00    +0.000 C 
ATOM     75  F15 UNL A   1      37.566  32.169  28.558  1.00  0.00    +0.000 F 
ENDBRANCH   64   65
TORSDOF 19
ENDMDL
MODEL 6
REMARK VINA RESULT:     -11.5      5.238     11.406
ROOT
ATOM     28  C20 UNL A   1      39.982  28.912  29.167  1.00  0.00    +0.000 C 
ATOM     29  C21 UNL A   1      40.264  28.710  30.608  1.00  0.00    +0.000 C 
ATOM     30  N6  UNL A   1      41.216  29.235  31.303  1.00  0.00    +0.000 N 
ATOM     31  C22 UNL A   1      41.087  28.713  32.586  1.00  0.00    +0.000 C 
ATOM     32  C23 UNL A   1      42.160  28.644  33.424  1.00  0.00    +0.000 C 
ATOM     44  C30 UNL A   1      43.235  29.479  32.948  1.00  0.00    +0.000 C 
ATOM     45  C31 UNL A   1      43.386  30.837  32.747  1.00  0.00    +0.000 C 
ATOM     46  C32 UNL A   1      44.126  30.949  31.533  1.00  0.00    +0.000 C 
ATOM     47  C33 UNL A   1      44.455  29.660  31.107  1.00  0.00    +0.000 C 
ATOM     48  N7  UNL A   1      44.232  28.882  32.216  1.00  0.00    +0.000 N 
ATOM     49  C34 UNL A   1      44.862  29.129  29.826  1.00  0.00    +0.000 C 
ATOM     61  C41 UNL A   1      44.768  27.817  29.460  1.00  0.00    +0.000 C 
ATOM     62  N8  UNL A   1      44.797  27.439  28.125  1.00  0.00    +0.000 N 
ATOM     63  C42 UNL A   1      44.135  26.313  28.083  1.00  0.00    +0.000 C 
ATOM     64  C43 UNL A   1      43.167  25.985  27.001  1.00  0.00    +0.000 C 
ATOM     76  C50 UNL A   1      42.147  26.871  27.120  1.00  0.00    +0.000 C 
ATOM     77  C51 UNL A   1      41.139  27.272  26.167  1.00  0.00    +0.000 C 
ATOM     78  C52 UNL A   1      40.358  28.203  26.751  1.00  0.00    +0.000 C 
ATOM     79  C53 UNL A   1      40.696  28.321  28.178  1.00  0.00    +0.000 C 
ATOM     80  N9  UNL A   1      41.847  27.585  28.300  1.00  0.00    +0.000 N 
ATOM     81  C54 UNL A   1      43.964  25.634  29.357  1.00  0.00    +0.000 C 
ATOM     82  C55 UNL A   1      44.277  26.642  30.178  1.00  0.00    +0.000 C 
ATOM     83  C56 UNL A   1      39.793  28.085  32.637  1.00  0.00    +0.000 C 
ATOM     84  C57 UNL A   1      39.291  27.951  31.408  1.00  0.00    +0.000 C 
ATOM    112  H22 UNL A   1      43.039  31.603  33.344  1.00  0.00    +0.000 H 
ATOM    113  H23 UNL A   1      44.375  31.828  31.052  1.00  0.00    +0.000 H 
ATOM    114  H24 UNL A   1      44.701  28.047  32.443  1.00  0.00    +0.000 H 
ATOM    115  H25 UNL A   1      41.034  26.908  25.207  1.00  0.00    +0.000 H 
ATOM    116  H26 UNL A   1      39.631  28.754  26.268  1.00  0.00    +0.000 H 
ATOM    117  H27 UNL A   1      42.399  27.557  29.115  1.00  0.00    +0.000 H 
ATOM    118  H28 UNL A   1      43.685  24.662  29.566  1.00  0.00    +0.000 H 
ATOM    119  H29 UNL A   1      44.182  26.594  31.204  1.00  0.00    +0.000 H 
ATOM    120  H30 UNL A   1      39.321  27.780  33.503  1.00  0.00    +0.000 H 
ATOM    121  H31 UNL A   1      38.443  27.448  31.102  1.00  0.00    +0.000 H 
ENDROOT
BRANCH   28   27
ATOM    122  H32 UNL A   1      39.650  31.451  28.874  1.00  0.00    +0.000 H 
ATOM     27  C19 UNL A   1      38.715  29.561  28.881  1.00  0.00    +0.000 C 
ATOM    110  H20 UNL A   1      35.514  29.113  28.006  1.00  0.00    +0.000 H 
ATOM    111  H21 UNL A   1      37.517  27.830  28.603  1.00  0.00    +0.000 H 
ATOM     85  C58 UNL A   1      38.750  30.945  28.878  1.00  0.00    +0.000 C 
ATOM     86  C59 UNL A   1      37.571  31.620  28.881  1.00  0.00    +0.000 C 
ATOM     24  C16 UNL A   1      36.423  30.981  28.433  1.00  0.00    +0.000 C 
ATOM     25  C17 UNL A   1      36.379  29.590  28.307  1.00  0.00    +0.000 C 
ATOM     26  C18 UNL A   1      37.532  28.863  28.598  1.00  0.00    +0.000 C 
ATOM    123  H33 UNL A   1      37.529  32.596  29.213  1.00  0.00    +0.000 H 
BRANCH   24   22
ATOM     22  C15 UNL A   1      35.306  31.861  28.049  1.00  0.00    +0.000 C 
ATOM     23  O3  UNL A   1      34.374  31.436  27.395  1.00  0.00    +0.000 O 
BRANCH   22   21
ATOM    109  H19 UNL A   1      35.936  33.786  27.969  1.00  0.00    +0.000 H 
ATOM     21  N5  UNL A   1      35.353  33.181  28.482  1.00  0.00    +0.000 N 
BRANCH   21   20
ATOM    108  H18 UNL A   1      33.914  33.063  29.958  1.00  0.00    +0.000 H 
ATOM    107  H17 UNL A   1      34.162  34.679  29.288  1.00  0.00    +0.000 H 
ATOM     20  C14 UNL A   1      34.633  33.777  29.615  1.00  0.00    +0.000 C 
BRANCH   20   19
ATOM    105  H15 UNL A   1      36.564  33.912  30.472  1.00  0.00    +0.000 H 
ATOM    106  H16 UNL A   1      35.403  35.128  31.030  1.00  0.00    +0.000 H 
ATOM     19  C13 UNL A   1      35.555  34.101  30.775  1.00  0.00    +0.000 C 
BRANCH   19   18
ATOM     18  C12 UNL A   1      35.256  33.266  32.030  1.00  0.00    +0.000 C 
ATOM    103  H13 UNL A   1      35.927  33.582  32.801  1.00  0.00    +0.000 H 
ATOM    104  H14 UNL A   1      34.223  33.438  32.249  1.00  0.00    +0.000 H 
BRANCH   18   17
ATOM     17  C11 UNL A   1      35.397  31.741  31.879  1.00  0.00    +0.000 C 
ATOM    101  H11 UNL A   1      34.591  31.281  32.410  1.00  0.00    +0.000 H 
ATOM    102  H12 UNL A   1      35.387  31.546  30.827  1.00  0.00    +0.000 H 
BRANCH   17   16
ATOM     99  H9  UNL A   1      36.571  30.098  32.567  1.00  0.00    +0.000 H 
ATOM    100  H10 UNL A   1      37.466  31.341  31.673  1.00  0.00    +0.000 H 
ATOM     16  C10 UNL A   1      36.711  31.147  32.406  1.00  0.00    +0.000 C 
BRANCH   16   15
ATOM     97  H7  UNL A   1      37.241  32.844  33.594  1.00  0.00    +0.000 H 
ATOM     98  H8  UNL A   1      36.468  31.552  34.489  1.00  0.00    +0.000 H 
ATOM     15  C9  UNL A   1      37.174  31.784  33.719  1.00  0.00    +0.000 C 
BRANCH   15   14
ATOM     14  N4  UNL A   1      38.475  31.262  34.093  1.00  0.00    +0.000 N 
ATOM     96  H6  UNL A   1      38.476  30.291  34.254  1.00  0.00    +0.000 H 
BRANCH   14   12
ATOM     12  C8  UNL A   1      39.705  31.844  34.268  1.00  0.00    +0.000 C 
ATOM     13  O2  UNL A   1      40.247  31.715  35.366  1.00  0.00    +0.000 O 
BRANCH   12   11
ATOM      8  C4  UNL A   1      41.828  33.964  31.233  1.00  0.00    +0.000 C 
ATOM      9  C5  UNL A   1      40.964  32.929  30.880  1.00  0.00    +0.000 C 
ATOM     10  C6  UNL A   1      40.257  32.276  31.896  1.00  0.00    +0.000 C 
ATOM     11  C7  UNL A   1      40.355  32.698  33.235  1.00  0.00    +0.000 C 
ATOM     87  C60 UNL A   1      41.072  33.861  33.521  1.00  0.00    +0.000 C 
ATOM     88  C61 UNL A   1      41.861  34.458  32.540  1.00  0.00    +0.000 C 
ATOM    124  H34 UNL A   1      41.018  34.281  34.462  1.00  0.00    +0.000 H 
ATOM    125  H35 UNL A   1      42.465  35.261  32.776  1.00  0.00    +0.000 H 
ATOM     94  H4  UNL A   1      40.849  32.650  29.894  1.00  0.00    +0.000 H 
ATOM     95  H5  UNL A   1      39.654  31.474  31.659  1.00  0.00    +0.000 H 
BRANCH    8    7
ATOM      4  C3  UNL A   1      43.624  35.146  28.420  1.00  0.00    +0.000 C 
ATOM      5  N1  UNL A   1      44.606  34.697  29.272  1.00  0.00    +0.000 N 
ATOM      6  N2  UNL A   1      44.050  34.407  30.441  1.00  0.00    +0.000 N 
ATOM      7  N3  UNL A   1      42.719  34.491  30.286  1.00  0.00    +0.000 N 
ATOM     89  C62 UNL A   1      42.404  35.092  29.078  1.00  0.00    +0.000 C 
BRANCH    4    2
ATOM      2  C2  UNL A   1      43.948  35.596  27.071  1.00  0.00    +0.000 C 
ATOM      3  O1  UNL A   1      45.000  36.187  26.828  1.00  0.00    +0.000 O 
BRANCH    2    1
ATOM      1  C1  UNL A   1      42.970  35.324  25.959  1.00  0.00    +0.000 C 
ATOM     91  H1  UNL A   1      43.505  35.086  25.063  1.00  0.00    +0.000 H 
ATOM     92  H2  UNL A   1      42.367  36.193  25.793  1.00  0.00    +0.000 H 
ATOM     93  H3  UNL A   1      42.342  34.501  26.229  1.00  0.00    +0.000 H 
ENDBRANCH    2    1
ENDBRANCH    4    2
BRANCH   89   90
ATOM     90  C63 UNL A   1      41.027  35.534  28.748  1.00  0.00    +0.000 C 
ATOM    126  H36 UNL A   1      41.055  36.533  28.367  1.00  0.00    +0.000 H 
ATOM    127  H37 UNL A   1      40.423  35.505  29.631  1.00  0.00    +0.000 H 
ATOM    128  H38 UNL A   1      40.611  34.882  28.008  1.00  0.00    +0.000 H 
ENDBRANCH   89   90
ENDBRANCH    8    7
ENDBRANCH   12   11
ENDBRANCH   14   12
ENDBRANCH   15   14
ENDBRANCH   16   15
ENDBRANCH   17   16
ENDBRANCH   18   17
ENDBRANCH   19   18
ENDBRANCH   20   19
ENDBRANCH   21   20
ENDBRANCH   22   21
ENDBRANCH   24   22
ENDBRANCH   28   27
BRANCH   32   33
ATOM     33  C24 UNL A   1      42.379  27.574  34.463  1.00  0.00    +0.000 C 
ATOM     34  C25 UNL A   1      42.962  26.351  34.071  1.00  0.00    +0.000 C 
ATOM     35  F1  UNL A   1      43.551  26.229  32.872  1.00  0.00    +0.000 F 
ATOM     36  C26 UNL A   1      42.877  25.204  34.864  1.00  0.00    +0.000 C 
ATOM     37  F2  UNL A   1      43.335  24.035  34.393  1.00  0.00    +0.000 F 
ATOM     38  C27 UNL A   1      42.263  25.249  36.101  1.00  0.00    +0.000 C 
ATOM     39  F3  UNL A   1      42.125  24.139  36.834  1.00  0.00    +0.000 F 
ATOM     40  C28 UNL A   1      41.749  26.446  36.554  1.00  0.00    +0.000 C 
ATOM     41  F4  UNL A   1      41.138  26.508  37.746  1.00  0.00    +0.000 F 
ATOM     42  C29 UNL A   1      41.786  27.579  35.744  1.00  0.00    +0.000 C 
ATOM     43  F5  UNL A   1      41.123  28.638  36.221  1.00  0.00    +0.000 F 
ENDBRANCH   32   33
BRANCH   49   50
ATOM     50  C35 UNL A   1      45.207  30.134  28.757  1.00  0.00    +0.000 C 
ATOM     51  C36 UNL A   1      44.258  30.747  27.919  1.00  0.00    +0.000 C 
ATOM     52  F6  UNL A   1      42.964  30.415  27.991  1.00  0.00    +0.000 F 
ATOM     53  C37 UNL A   1      44.617  31.761  27.030  1.00  0.00    +0.000 C 
ATOM     54  F7  UNL A   1      43.690  32.323  26.240  1.00  0.00    +0.000 F 
ATOM     55  C38 UNL A   1      45.923  32.216  26.991  1.00  0.00    +0.000 C 
ATOM     56  F8  UNL A   1      46.264  33.219  26.170  1.00  0.00    +0.000 F 
ATOM     57  C39 UNL A   1      46.872  31.648  27.826  1.00  0.00    +0.000 C 
ATOM     58  F9  UNL A   1      48.127  32.117  27.828  1.00  0.00    +0.000 F 
ATOM     59  C40 UNL A   1      46.521  30.612  28.688  1.00  0.00    +0.000 C 
ATOM     60  F10 UNL A   1      47.460  30.106  29.502  1.00  0.00    +0.000 F 
ENDBRANCH   49   50
BRANCH   64   65
ATOM     65  C44 UNL A   1      43.178  24.699  26.268  1.00  0.00    +0.000 C 
ATOM     66  C45 UNL A   1      44.113  24.444  25.252  1.00  0.00    +0.000 C 
ATOM     67  F11 UNL A   1      44.874  25.439  24.774  1.00  0.00    +0.000 F 
ATOM     68  C46 UNL A   1      44.327  23.151  24.760  1.00  0.00    +0.000 C 
ATOM     69  F12 UNL A   1      45.267  22.937  23.828  1.00  0.00    +0.000 F 
ATOM     70  C47 UNL A   1      43.614  22.079  25.271  1.00  0.00    +0.000 C 
ATOM     71  F13 UNL A   1      43.863  20.833  24.846  1.00  0.00    +0.000 F 
ATOM     72  C48 UNL A   1      42.670  22.300  26.257  1.00  0.00    +0.000 C 
ATOM     73  F14 UNL A   1      42.002  21.267  26.790  1.00  0.00    +0.000 F 
ATOM     74  C49 UNL A   1      42.456  23.589  26.748  1.00  0.00    +0.000 C 
ATOM     75  F15 UNL A   1      41.596  23.721  27.769  1.00  0.00    +0.000 F 
ENDBRANCH   64   65
TORSDOF 19
ENDMDL
MODEL 7
REMARK VINA RESULT:     -11.4      1.915      2.427
ROOT
ATOM     28  C20 UNL A   1      40.756  27.778  28.841  1.00  0.00    +0.000 C 
ATOM     29  C21 UNL A   1      41.972  28.413  28.279  1.00  0.00    +0.000 C 
ATOM     30  N6  UNL A   1      43.070  28.688  28.898  1.00  0.00    +0.000 N 
ATOM     31  C22 UNL A   1      43.892  29.310  27.963  1.00  0.00    +0.000 C 
ATOM     32  C23 UNL A   1      44.885  30.155  28.358  1.00  0.00    +0.000 C 
ATOM     44  C30 UNL A   1      45.162  29.999  29.765  1.00  0.00    +0.000 C 
ATOM     45  C31 UNL A   1      45.633  28.963  30.546  1.00  0.00    +0.000 C 
ATOM     46  C32 UNL A   1      44.867  29.029  31.747  1.00  0.00    +0.000 C 
ATOM     47  C33 UNL A   1      44.033  30.147  31.666  1.00  0.00    +0.000 C 
ATOM     48  N7  UNL A   1      44.566  30.879  30.635  1.00  0.00    +0.000 N 
ATOM     49  C34 UNL A   1      42.830  30.520  32.373  1.00  0.00    +0.000 C 
ATOM     61  C41 UNL A   1      41.913  31.428  31.927  1.00  0.00    +0.000 C 
ATOM     62  N8  UNL A   1      40.620  31.454  32.434  1.00  0.00    +0.000 N 
ATOM     63  C42 UNL A   1      39.895  31.962  31.473  1.00  0.00    +0.000 C 
ATOM     64  C43 UNL A   1      38.551  31.438  31.110  1.00  0.00    +0.000 C 
ATOM     76  C50 UNL A   1      38.746  30.181  30.638  1.00  0.00    +0.000 C 
ATOM     77  C51 UNL A   1      37.821  29.083  30.489  1.00  0.00    +0.000 C 
ATOM     78  C52 UNL A   1      38.501  28.028  29.996  1.00  0.00    +0.000 C 
ATOM     79  C53 UNL A   1      39.863  28.437  29.619  1.00  0.00    +0.000 C 
ATOM     80  N9  UNL A   1      39.976  29.701  30.138  1.00  0.00    +0.000 N 
ATOM     81  C54 UNL A   1      40.629  32.682  30.444  1.00  0.00    +0.000 C 
ATOM     82  C55 UNL A   1      41.861  32.239  30.712  1.00  0.00    +0.000 C 
ATOM     83  C56 UNL A   1      43.282  29.085  26.679  1.00  0.00    +0.000 C 
ATOM     84  C57 UNL A   1      42.033  28.638  26.827  1.00  0.00    +0.000 C 
ATOM    112  H22 UNL A   1      46.378  28.288  30.312  1.00  0.00    +0.000 H 
ATOM    113  H23 UNL A   1      44.919  28.368  32.538  1.00  0.00    +0.000 H 
ATOM    114  H24 UNL A   1      44.528  31.858  30.538  1.00  0.00    +0.000 H 
ATOM    115  H25 UNL A   1      36.815  29.103  30.717  1.00  0.00    +0.000 H 
ATOM    116  H26 UNL A   1      38.122  27.073  29.899  1.00  0.00    +0.000 H 
ATOM    117  H27 UNL A   1      40.816  30.214  30.160  1.00  0.00    +0.000 H 
ATOM    118  H28 UNL A   1      40.296  33.341  29.722  1.00  0.00    +0.000 H 
ATOM    119  H29 UNL A   1      42.684  32.446  30.125  1.00  0.00    +0.000 H 
ATOM    120  H30 UNL A   1      43.746  29.248  25.772  1.00  0.00    +0.000 H 
ATOM    121  H31 UNL A   1      41.305  28.489  26.111  1.00  0.00    +0.000 H 
ENDROOT
BRANCH   28   27
ATOM    122  H32 UNL A   1      42.032  25.590  29.317  1.00  0.00    +0.000 H 
ATOM     27  C19 UNL A   1      40.431  26.481  28.273  1.00  0.00    +0.000 C 
ATOM    110  H20 UNL A   1      38.190  24.710  26.526  1.00  0.00    +0.000 H 
ATOM    111  H21 UNL A   1      38.633  27.004  27.271  1.00  0.00    +0.000 H 
ATOM     85  C58 UNL A   1      41.321  25.467  28.578  1.00  0.00    +0.000 C 
ATOM     86  C59 UNL A   1      41.235  24.303  27.882  1.00  0.00    +0.000 C 
ATOM     24  C16 UNL A   1      40.043  23.977  27.251  1.00  0.00    +0.000 C 
ATOM     25  C17 UNL A   1      39.062  24.947  27.026  1.00  0.00    +0.000 C 
ATOM     26  C18 UNL A   1      39.290  26.239  27.493  1.00  0.00    +0.000 C 
ATOM    123  H33 UNL A   1      42.048  23.669  27.822  1.00  0.00    +0.000 H 
BRANCH   24   22
ATOM     22  C15 UNL A   1      39.868  22.556  26.902  1.00  0.00    +0.000 C 
ATOM     23  O3  UNL A   1      40.356  21.681  27.590  1.00  0.00    +0.000 O 
BRANCH   22   21
ATOM    109  H19 UNL A   1      39.564  22.362  24.908  1.00  0.00    +0.000 H 
ATOM     21  N5  UNL A   1      39.110  22.263  25.775  1.00  0.00    +0.000 N 
BRANCH   21   20
ATOM    108  H18 UNL A   1      37.136  22.599  25.269  1.00  0.00    +0.000 H 
ATOM    107  H17 UNL A   1      37.376  21.630  26.728  1.00  0.00    +0.000 H 
ATOM     20  C14 UNL A   1      37.710  21.822  25.730  1.00  0.00    +0.000 C 
BRANCH   20   19
ATOM    105  H15 UNL A   1      37.835  20.766  23.899  1.00  0.00    +0.000 H 
ATOM    106  H16 UNL A   1      38.129  19.796  25.352  1.00  0.00    +0.000 H 
ATOM     19  C13 UNL A   1      37.531  20.561  24.904  1.00  0.00    +0.000 C 
BRANCH   19   18
ATOM     18  C12 UNL A   1      36.080  20.059  24.884  1.00  0.00    +0.000 C 
ATOM    103  H13 UNL A   1      35.911  19.582  23.941  1.00  0.00    +0.000 H 
ATOM    104  H14 UNL A   1      35.990  19.407  25.728  1.00  0.00    +0.000 H 
BRANCH   18   17
ATOM     17  C11 UNL A   1      34.989  21.129  25.072  1.00  0.00    +0.000 C 
ATOM    101  H11 UNL A   1      35.458  22.017  25.440  1.00  0.00    +0.000 H 
ATOM    102  H12 UNL A   1      34.526  21.251  24.115  1.00  0.00    +0.000 H 
BRANCH   17   16
ATOM     99  H9  UNL A   1      33.984  19.730  26.329  1.00  0.00    +0.000 H 
ATOM    100  H10 UNL A   1      33.928  21.414  26.881  1.00  0.00    +0.000 H 
ATOM     16  C10 UNL A   1      33.861  20.753  26.042  1.00  0.00    +0.000 C 
BRANCH   16   15
ATOM     97  H7  UNL A   1      31.799  20.212  25.874  1.00  0.00    +0.000 H 
ATOM     98  H8  UNL A   1      32.117  21.918  25.633  1.00  0.00    +0.000 H 
ATOM     15  C9  UNL A   1      32.465  20.925  25.436  1.00  0.00    +0.000 C 
BRANCH   15   14
ATOM     14  N4  UNL A   1      32.517  20.714  24.001  1.00  0.00    +0.000 N 
ATOM     96  H6  UNL A   1      32.840  19.818  23.749  1.00  0.00    +0.000 H 
BRANCH   14   12
ATOM     12  C8  UNL A   1      32.210  21.506  22.925  1.00  0.00    +0.000 C 
ATOM     13  O2  UNL A   1      31.956  20.947  21.858  1.00  0.00    +0.000 O 
BRANCH   12   11
ATOM      8  C4  UNL A   1      32.646  25.727  23.372  1.00  0.00    +0.000 C 
ATOM      9  C5  UNL A   1      33.696  24.974  22.851  1.00  0.00    +0.000 C 
ATOM     10  C6  UNL A   1      33.509  23.597  22.685  1.00  0.00    +0.000 C 
ATOM     11  C7  UNL A   1      32.269  22.995  22.967  1.00  0.00    +0.000 C 
ATOM     87  C60 UNL A   1      31.186  23.810  23.296  1.00  0.00    +0.000 C 
ATOM     88  C61 UNL A   1      31.382  25.163  23.563  1.00  0.00    +0.000 C 
ATOM    124  H34 UNL A   1      30.235  23.410  23.341  1.00  0.00    +0.000 H 
ATOM    125  H35 UNL A   1      30.599  25.747  23.898  1.00  0.00    +0.000 H 
ATOM     94  H4  UNL A   1      34.589  25.420  22.593  1.00  0.00    +0.000 H 
ATOM     95  H5  UNL A   1      34.292  23.016  22.350  1.00  0.00    +0.000 H 
BRANCH    8    7
ATOM      4  C3  UNL A   1      32.897  28.912  24.900  1.00  0.00    +0.000 C 
ATOM      5  N1  UNL A   1      32.783  29.199  23.560  1.00  0.00    +0.000 N 
ATOM      6  N2  UNL A   1      32.874  28.066  22.876  1.00  0.00    +0.000 N 
ATOM      7  N3  UNL A   1      32.861  27.058  23.764  1.00  0.00    +0.000 N 
ATOM     89  C62 UNL A   1      33.023  27.539  25.053  1.00  0.00    +0.000 C 
BRANCH    4    2
ATOM      2  C2  UNL A   1      32.890  29.974  25.899  1.00  0.00    +0.000 C 
ATOM      3  O1  UNL A   1      33.883  30.216  26.585  1.00  0.00    +0.000 O 
BRANCH    2    1
ATOM      1  C1  UNL A   1      31.637  30.789  26.086  1.00  0.00    +0.000 C 
ATOM     91  H1  UNL A   1      31.839  31.610  26.742  1.00  0.00    +0.000 H 
ATOM     92  H2  UNL A   1      30.871  30.174  26.512  1.00  0.00    +0.000 H 
ATOM     93  H3  UNL A   1      31.309  31.162  25.139  1.00  0.00    +0.000 H 
ENDBRANCH    2    1
ENDBRANCH    4    2
BRANCH   89   90
ATOM     90  C63 UNL A   1      33.289  26.644  26.205  1.00  0.00    +0.000 C 
ATOM    126  H36 UNL A   1      33.504  27.232  27.072  1.00  0.00    +0.000 H 
ATOM    127  H37 UNL A   1      34.128  26.017  25.983  1.00  0.00    +0.000 H 
ATOM    128  H38 UNL A   1      32.428  26.036  26.391  1.00  0.00    +0.000 H 
ENDBRANCH   89   90
ENDBRANCH    8    7
ENDBRANCH   12   11
ENDBRANCH   14   12
ENDBRANCH   15   14
ENDBRANCH   16   15
ENDBRANCH   17   16
ENDBRANCH   18   17
ENDBRANCH   19   18
ENDBRANCH   20   19
ENDBRANCH   21   20
ENDBRANCH   22   21
ENDBRANCH   24   22
ENDBRANCH   28   27
BRANCH   32   33
ATOM     33  C24 UNL A   1      45.359  31.356  27.579  1.00  0.00    +0.000 C 
ATOM     34  C25 UNL A   1      46.694  31.395  27.129  1.00  0.00    +0.000 C 
ATOM     35  F1  UNL A   1      47.456  30.290  27.155  1.00  0.00    +0.000 F 
ATOM     36  C26 UNL A   1      47.305  32.585  26.726  1.00  0.00    +0.000 C 
ATOM     37  F2  UNL A   1      48.612  32.594  26.427  1.00  0.00    +0.000 F 
ATOM     38  C27 UNL A   1      46.589  33.767  26.697  1.00  0.00    +0.000 C 
ATOM     39  F3  UNL A   1      47.187  34.919  26.371  1.00  0.00    +0.000 F 
ATOM     40  C28 UNL A   1      45.257  33.756  27.055  1.00  0.00    +0.000 C 
ATOM     41  F4  UNL A   1      44.549  34.894  27.047  1.00  0.00    +0.000 F 
ATOM     42  C29 UNL A   1      44.661  32.581  27.509  1.00  0.00    +0.000 C 
ATOM     43  F5  UNL A   1      43.414  32.722  27.974  1.00  0.00    +0.000 F 
ENDBRANCH   32   33
BRANCH   49   50
ATOM     50  C35 UNL A   1      42.465  29.684  33.574  1.00  0.00    +0.000 C 
ATOM     51  C36 UNL A   1      41.874  28.410  33.496  1.00  0.00    +0.000 C 
ATOM     52  F6  UNL A   1      41.540  27.882  32.313  1.00  0.00    +0.000 F 
ATOM     53  C37 UNL A   1      41.671  27.629  34.633  1.00  0.00    +0.000 C 
ATOM     54  F7  UNL A   1      41.100  26.420  34.526  1.00  0.00    +0.000 F 
ATOM     55  C38 UNL A   1      42.094  28.085  35.869  1.00  0.00    +0.000 C 
ATOM     56  F8  UNL A   1      41.941  27.319  36.959  1.00  0.00    +0.000 F 
ATOM     57  C39 UNL A   1      42.704  29.325  35.971  1.00  0.00    +0.000 C 
ATOM     58  F9  UNL A   1      43.161  29.750  37.156  1.00  0.00    +0.000 F 
ATOM     59  C40 UNL A   1      42.875  30.120  34.839  1.00  0.00    +0.000 C 
ATOM     60  F10 UNL A   1      43.496  31.302  34.972  1.00  0.00    +0.000 F 
ENDBRANCH   49   50
BRANCH   64   65
ATOM     65  C44 UNL A   1      37.365  32.305  30.934  1.00  0.00    +0.000 C 
ATOM     66  C45 UNL A   1      37.089  32.928  29.706  1.00  0.00    +0.000 C 
ATOM     67  F11 UNL A   1      38.010  32.927  28.731  1.00  0.00    +0.000 F 
ATOM     68  C46 UNL A   1      35.840  33.501  29.438  1.00  0.00    +0.000 C 
ATOM     69  F12 UNL A   1      35.595  34.038  28.235  1.00  0.00    +0.000 F 
ATOM     70  C47 UNL A   1      34.834  33.466  30.390  1.00  0.00    +0.000 C 
ATOM     71  F13 UNL A   1      33.619  33.958  30.111  1.00  0.00    +0.000 F 
ATOM     72  C48 UNL A   1      35.081  32.880  31.617  1.00  0.00    +0.000 C 
ATOM     73  F14 UNL A   1      34.104  32.802  32.532  1.00  0.00    +0.000 F 
ATOM     74  C49 UNL A   1      36.326  32.309  31.885  1.00  0.00    +0.000 C 
ATOM     75  F15 UNL A   1      36.470  31.673  33.057  1.00  0.00    +0.000 F 
ENDBRANCH   64   65
TORSDOF 19
ENDMDL
MODEL 8
REMARK VINA RESULT:     -11.4     26.371     32.325
ROOT
ATOM     28  C20 UNL A   1      22.209  18.516   5.177  1.00  0.00    +0.000 C 
ATOM     29  C21 UNL A   1      21.742  17.172   4.760  1.00  0.00    +0.000 C 
ATOM     30  N6  UNL A   1      21.302  16.224   5.517  1.00  0.00    +0.000 N 
ATOM     31  C22 UNL A   1      21.029  15.154   4.671  1.00  0.00    +0.000 C 
ATOM     32  C23 UNL A   1      21.029  13.874   5.140  1.00  0.00    +0.000 C 
ATOM     44  C30 UNL A   1      20.973  13.857   6.582  1.00  0.00    +0.000 C 
ATOM     45  C31 UNL A   1      20.047  14.278   7.516  1.00  0.00    +0.000 C 
ATOM     46  C32 UNL A   1      20.821  14.845   8.571  1.00  0.00    +0.000 C 
ATOM     47  C33 UNL A   1      22.171  14.666   8.261  1.00  0.00    +0.000 C 
ATOM     48  N7  UNL A   1      22.156  13.721   7.266  1.00  0.00    +0.000 N 
ATOM     49  C34 UNL A   1      23.375  15.310   8.735  1.00  0.00    +0.000 C 
ATOM     61  C41 UNL A   1      24.569  15.316   8.071  1.00  0.00    +0.000 C 
ATOM     62  N8  UNL A   1      25.550  16.253   8.365  1.00  0.00    +0.000 N 
ATOM     63  C42 UNL A   1      26.239  16.371   7.260  1.00  0.00    +0.000 C 
ATOM     64  C43 UNL A   1      26.711  17.683   6.739  1.00  0.00    +0.000 C 
ATOM     76  C50 UNL A   1      25.599  18.389   6.417  1.00  0.00    +0.000 C 
ATOM     77  C51 UNL A   1      25.414  19.807   6.221  1.00  0.00    +0.000 C 
ATOM     78  C52 UNL A   1      24.114  20.024   5.937  1.00  0.00    +0.000 C 
ATOM     79  C53 UNL A   1      23.419  18.742   5.744  1.00  0.00    +0.000 C 
ATOM     80  N9  UNL A   1      24.336  17.811   6.161  1.00  0.00    +0.000 N 
ATOM     81  C54 UNL A   1      26.080  15.291   6.300  1.00  0.00    +0.000 C 
ATOM     82  C55 UNL A   1      24.974  14.727   6.796  1.00  0.00    +0.000 C 
ATOM     83  C56 UNL A   1      21.060  15.681   3.332  1.00  0.00    +0.000 C 
ATOM     84  C57 UNL A   1      21.611  16.896   3.321  1.00  0.00    +0.000 C 
ATOM    112  H22 UNL A   1      19.020  14.198   7.462  1.00  0.00    +0.000 H 
ATOM    113  H23 UNL A   1      20.449  15.308   9.415  1.00  0.00    +0.000 H 
ATOM    114  H24 UNL A   1      22.866  13.065   7.077  1.00  0.00    +0.000 H 
ATOM    115  H25 UNL A   1      26.149  20.528   6.286  1.00  0.00    +0.000 H 
ATOM    116  H26 UNL A   1      23.671  20.954   5.866  1.00  0.00    +0.000 H 
ATOM    117  H27 UNL A   1      24.138  16.852   6.268  1.00  0.00    +0.000 H 
ATOM    118  H28 UNL A   1      26.651  15.036   5.479  1.00  0.00    +0.000 H 
ATOM    119  H29 UNL A   1      24.464  13.961   6.330  1.00  0.00    +0.000 H 
ATOM    120  H30 UNL A   1      20.705  15.187   2.498  1.00  0.00    +0.000 H 
ATOM    121  H31 UNL A   1      21.875  17.485   2.516  1.00  0.00    +0.000 H 
ENDROOT
BRANCH   28   27
ATOM    122  H32 UNL A   1      23.008  20.298   3.495  1.00  0.00    +0.000 H 
ATOM     27  C19 UNL A   1      21.404  19.619   4.683  1.00  0.00    +0.000 C 
ATOM    110  H20 UNL A   1      18.334  20.946   4.522  1.00  0.00    +0.000 H 
ATOM    111  H21 UNL A   1      19.548  19.092   5.570  1.00  0.00    +0.000 H 
ATOM     85  C58 UNL A   1      22.074  20.520   3.874  1.00  0.00    +0.000 C 
ATOM     86  C59 UNL A   1      21.470  21.704   3.590  1.00  0.00    +0.000 C 
ATOM     24  C16 UNL A   1      20.091  21.805   3.701  1.00  0.00    +0.000 C 
ATOM     25  C17 UNL A   1      19.356  20.851   4.411  1.00  0.00    +0.000 C 
ATOM     26  C18 UNL A   1      20.038  19.770   4.965  1.00  0.00    +0.000 C 
ATOM    123  H33 UNL A   1      22.031  22.518   3.296  1.00  0.00    +0.000 H 
BRANCH   24   22
ATOM     22  C15 UNL A   1      19.469  22.929   2.980  1.00  0.00    +0.000 C 
ATOM     23  O3  UNL A   1      18.379  22.806   2.456  1.00  0.00    +0.000 O 
BRANCH   22   21
ATOM    109  H19 UNL A   1      20.385  24.532   3.815  1.00  0.00    +0.000 H 
ATOM     21  N5  UNL A   1      20.166  24.131   2.944  1.00  0.00    +0.000 N 
BRANCH   21   20
ATOM    108  H18 UNL A   1      20.478  25.913   1.949  1.00  0.00    +0.000 H 
ATOM    107  H17 UNL A   1      20.038  24.549   0.914  1.00  0.00    +0.000 H 
ATOM     20  C14 UNL A   1      20.614  24.869   1.757  1.00  0.00    +0.000 C 
BRANCH   20   19
ATOM    105  H15 UNL A   1      22.436  23.838   2.074  1.00  0.00    +0.000 H 
ATOM    106  H16 UNL A   1      22.168  24.409   0.417  1.00  0.00    +0.000 H 
ATOM     19  C13 UNL A   1      22.084  24.640   1.458  1.00  0.00    +0.000 C 
BRANCH   19   18
ATOM     18  C12 UNL A   1      22.950  25.880   1.726  1.00  0.00    +0.000 C 
ATOM    103  H13 UNL A   1      22.796  26.173   2.744  1.00  0.00    +0.000 H 
ATOM    104  H14 UNL A   1      23.953  25.583   1.502  1.00  0.00    +0.000 H 
BRANCH   18   17
ATOM     17  C11 UNL A   1      22.674  27.105   0.836  1.00  0.00    +0.000 C 
ATOM    101  H11 UNL A   1      21.858  26.865   0.188  1.00  0.00    +0.000 H 
ATOM    102  H12 UNL A   1      22.469  27.916   1.504  1.00  0.00    +0.000 H 
BRANCH   17   16
ATOM     99  H9  UNL A   1      24.752  27.134   0.355  1.00  0.00    +0.000 H 
ATOM    100  H10 UNL A   1      23.655  27.238  -1.035  1.00  0.00    +0.000 H 
ATOM     16  C10 UNL A   1      23.852  27.563  -0.035  1.00  0.00    +0.000 C 
BRANCH   16   15
ATOM     97  H7  UNL A   1      23.423  29.524   0.701  1.00  0.00    +0.000 H 
ATOM     98  H8  UNL A   1      25.047  29.331   0.074  1.00  0.00    +0.000 H 
ATOM     15  C9  UNL A   1      24.015  29.085  -0.073  1.00  0.00    +0.000 C 
BRANCH   15   14
ATOM     14  N4  UNL A   1      23.583  29.599  -1.359  1.00  0.00    +0.000 N 
ATOM     96  H6  UNL A   1      24.253  30.172  -1.797  1.00  0.00    +0.000 H 
BRANCH   14   12
ATOM     12  C8  UNL A   1      22.431  29.452  -2.089  1.00  0.00    +0.000 C 
ATOM     13  O2  UNL A   1      22.539  29.077  -3.257  1.00  0.00    +0.000 O 
BRANCH   12   11
ATOM      8  C4  UNL A   1      18.774  30.734  -0.304  1.00  0.00    +0.000 C 
ATOM      9  C5  UNL A   1      19.525  31.629  -1.063  1.00  0.00    +0.000 C 
ATOM     10  C6  UNL A   1      20.702  31.168  -1.664  1.00  0.00    +0.000 C 
ATOM     11  C7  UNL A   1      21.084  29.817  -1.567  1.00  0.00    +0.000 C 
ATOM     87  C60 UNL A   1      20.206  28.912  -0.969  1.00  0.00    +0.000 C 
ATOM     88  C61 UNL A   1      19.086  29.372  -0.281  1.00  0.00    +0.000 C 
ATOM    124  H34 UNL A   1      20.387  27.898  -1.037  1.00  0.00    +0.000 H 
ATOM    125  H35 UNL A   1      18.489  28.712   0.242  1.00  0.00    +0.000 H 
ATOM     94  H4  UNL A   1      19.221  32.608  -1.181  1.00  0.00    +0.000 H 
ATOM     95  H5  UNL A   1      21.298  31.829  -2.186  1.00  0.00    +0.000 H 
BRANCH    8    7
ATOM      4  C3  UNL A   1      15.829  32.051   1.156  1.00  0.00    +0.000 C 
ATOM      5  N1  UNL A   1      16.814  32.363   2.064  1.00  0.00    +0.000 N 
ATOM      6  N2  UNL A   1      17.932  31.747   1.703  1.00  0.00    +0.000 N 
ATOM      7  N3  UNL A   1      17.718  31.202   0.495  1.00  0.00    +0.000 N 
ATOM     89  C62 UNL A   1      16.372  31.240   0.171  1.00  0.00    +0.000 C 
BRANCH    4    2
ATOM      2  C2  UNL A   1      14.467  32.544   1.327  1.00  0.00    +0.000 C 
ATOM      3  O1  UNL A   1      14.046  33.502   0.678  1.00  0.00    +0.000 O 
BRANCH    2    1
ATOM      1  C1  UNL A   1      13.564  31.857   2.317  1.00  0.00    +0.000 C 
ATOM     91  H1  UNL A   1      14.038  30.968   2.677  1.00  0.00    +0.000 H 
ATOM     92  H2  UNL A   1      12.640  31.601   1.840  1.00  0.00    +0.000 H 
ATOM     93  H3  UNL A   1      13.369  32.515   3.139  1.00  0.00    +0.000 H 
ENDBRANCH    2    1
ENDBRANCH    4    2
BRANCH   89   90
ATOM     90  C63 UNL A   1      15.814  30.499  -0.986  1.00  0.00    +0.000 C 
ATOM    126  H36 UNL A   1      16.569  29.866  -1.403  1.00  0.00    +0.000 H 
ATOM    127  H37 UNL A   1      15.482  31.194  -1.728  1.00  0.00    +0.000 H 
ATOM    128  H38 UNL A   1      14.988  29.901  -0.662  1.00  0.00    +0.000 H 
ENDBRANCH   89   90
ENDBRANCH    8    7
ENDBRANCH   12   11
ENDBRANCH   14   12
ENDBRANCH   15   14
ENDBRANCH   16   15
ENDBRANCH   17   16
ENDBRANCH   18   17
ENDBRANCH   19   18
ENDBRANCH   20   19
ENDBRANCH   21   20
ENDBRANCH   22   21
ENDBRANCH   24   22
ENDBRANCH   28   27
BRANCH   32   33
ATOM     33  C24 UNL A   1      21.433  12.660   4.342  1.00  0.00    +0.000 C 
ATOM     34  C25 UNL A   1      22.770  12.539   3.913  1.00  0.00    +0.000 C 
ATOM     35  F1  UNL A   1      23.725  13.337   4.416  1.00  0.00    +0.000 F 
ATOM     36  C26 UNL A   1      23.143  11.657   2.896  1.00  0.00    +0.000 C 
ATOM     37  F2  UNL A   1      24.403  11.668   2.435  1.00  0.00    +0.000 F 
ATOM     38  C27 UNL A   1      22.210  10.822   2.313  1.00  0.00    +0.000 C 
ATOM     39  F3  UNL A   1      22.551  10.021   1.297  1.00  0.00    +0.000 F 
ATOM     40  C28 UNL A   1      20.905  10.854   2.760  1.00  0.00    +0.000 C 
ATOM     41  F4  UNL A   1      19.982  10.062   2.199  1.00  0.00    +0.000 F 
ATOM     42  C29 UNL A   1      20.520  11.770   3.737  1.00  0.00    +0.000 C 
ATOM     43  F5  UNL A   1      19.205  11.819   3.981  1.00  0.00    +0.000 F 
ENDBRANCH   32   33
BRANCH   49   50
ATOM     50  C35 UNL A   1      23.232  16.214   9.932  1.00  0.00    +0.000 C 
ATOM     51  C36 UNL A   1      22.683  17.507   9.880  1.00  0.00    +0.000 C 
ATOM     52  F6  UNL A   1      22.300  18.043   8.715  1.00  0.00    +0.000 F 
ATOM     53  C37 UNL A   1      22.460  18.253  11.038  1.00  0.00    +0.000 C 
ATOM     54  F7  UNL A   1      21.939  19.486  10.954  1.00  0.00    +0.000 F 
ATOM     55  C38 UNL A   1      22.740  17.705  12.277  1.00  0.00    +0.000 C 
ATOM     56  F8  UNL A   1      22.487  18.401  13.394  1.00  0.00    +0.000 F 
ATOM     57  C39 UNL A   1      23.256  16.422  12.359  1.00  0.00    +0.000 C 
ATOM     58  F9  UNL A   1      23.482  15.867  13.557  1.00  0.00    +0.000 F 
ATOM     59  C40 UNL A   1      23.511  15.691  11.200  1.00  0.00    +0.000 C 
ATOM     60  F10 UNL A   1      23.983  14.441  11.320  1.00  0.00    +0.000 F 
ENDBRANCH   49   50
BRANCH   64   65
ATOM     65  C44 UNL A   1      28.105  17.924   6.302  1.00  0.00    +0.000 C 
ATOM     66  C45 UNL A   1      29.154  18.037   7.229  1.00  0.00    +0.000 C 
ATOM     67  F11 UNL A   1      28.884  18.146   8.538  1.00  0.00    +0.000 F 
ATOM     68  C46 UNL A   1      30.494  17.971   6.831  1.00  0.00    +0.000 C 
ATOM     69  F12 UNL A   1      31.468  18.028   7.750  1.00  0.00    +0.000 F 
ATOM     70  C47 UNL A   1      30.821  17.790   5.497  1.00  0.00    +0.000 C 
ATOM     71  F13 UNL A   1      32.103  17.663   5.124  1.00  0.00    +0.000 F 
ATOM     72  C48 UNL A   1      29.813  17.697   4.557  1.00  0.00    +0.000 C 
ATOM     73  F14 UNL A   1      30.114  17.481   3.269  1.00  0.00    +0.000 F 
ATOM     74  C49 UNL A   1      28.476  17.763   4.953  1.00  0.00    +0.000 C 
ATOM     75  F15 UNL A   1      27.545  17.572   4.005  1.00  0.00    +0.000 F 
ENDBRANCH   64   65
TORSDOF 19
ENDMDL
MODEL 9
REMARK VINA RESULT:     -11.3      2.008      4.075
ROOT
ATOM     28  C20 UNL A   1      41.032  28.085  28.725  1.00  0.00    +0.000 C 
ATOM     29  C21 UNL A   1      42.192  28.901  28.295  1.00  0.00    +0.000 C 
ATOM     30  N6  UNL A   1      43.202  29.267  29.010  1.00  0.00    +0.000 N 
ATOM     31  C22 UNL A   1      43.999  30.047  28.179  1.00  0.00    +0.000 C 
ATOM     32  C23 UNL A   1      44.847  30.980  28.696  1.00  0.00    +0.000 C 
ATOM     44  C30 UNL A   1      45.046  30.763  30.108  1.00  0.00    +0.000 C 
ATOM     45  C31 UNL A   1      45.593  29.742  30.860  1.00  0.00    +0.000 C 
ATOM     46  C32 UNL A   1      44.745  29.631  32.002  1.00  0.00    +0.000 C 
ATOM     47  C33 UNL A   1      43.783  30.640  31.924  1.00  0.00    +0.000 C 
ATOM     48  N7  UNL A   1      44.286  31.502  30.982  1.00  0.00    +0.000 N 
ATOM     49  C34 UNL A   1      42.497  30.813  32.560  1.00  0.00    +0.000 C 
ATOM     61  C41 UNL A   1      41.503  31.629  32.101  1.00  0.00    +0.000 C 
ATOM     62  N8  UNL A   1      40.187  31.461  32.510  1.00  0.00    +0.000 N 
ATOM     63  C42 UNL A   1      39.469  31.941  31.529  1.00  0.00    +0.000 C 
ATOM     64  C43 UNL A   1      38.230  31.281  31.035  1.00  0.00    +0.000 C 
ATOM     76  C50 UNL A   1      38.615  30.093  30.506  1.00  0.00    +0.000 C 
ATOM     77  C51 UNL A   1      37.851  28.902  30.222  1.00  0.00    +0.000 C 
ATOM     78  C52 UNL A   1      38.691  27.975  29.719  1.00  0.00    +0.000 C 
ATOM     79  C53 UNL A   1      40.012  28.574  29.471  1.00  0.00    +0.000 C 
ATOM     80  N9  UNL A   1      39.928  29.804  30.072  1.00  0.00    +0.000 N 
ATOM     81  C54 UNL A   1      40.172  32.815  30.602  1.00  0.00    +0.000 C 
ATOM     82  C55 UNL A   1      41.430  32.509  30.936  1.00  0.00    +0.000 C 
ATOM     83  C56 UNL A   1      43.510  29.837  26.841  1.00  0.00    +0.000 C 
ATOM     84  C57 UNL A   1      42.322  29.231  26.868  1.00  0.00    +0.000 C 
ATOM    112  H22 UNL A   1      46.431  29.181  30.642  1.00  0.00    +0.000 H 
ATOM    113  H23 UNL A   1      44.828  28.928  32.753  1.00  0.00    +0.000 H 
ATOM    114  H24 UNL A   1      44.129  32.473  30.940  1.00  0.00    +0.000 H 
ATOM    115  H25 UNL A   1      36.837  28.782  30.374  1.00  0.00    +0.000 H 
ATOM    116  H26 UNL A   1      38.445  26.990  29.538  1.00  0.00    +0.000 H 
ATOM    117  H27 UNL A   1      40.692  30.414  30.187  1.00  0.00    +0.000 H 
ATOM    118  H28 UNL A   1      39.807  33.475  29.898  1.00  0.00    +0.000 H 
ATOM    119  H29 UNL A   1      42.257  32.856  30.426  1.00  0.00    +0.000 H 
ATOM    120  H30 UNL A   1      44.010  30.118  25.982  1.00  0.00    +0.000 H 
ATOM    121  H31 UNL A   1      41.668  29.043  26.092  1.00  0.00    +0.000 H 
ENDROOT
BRANCH   28   27
ATOM    122  H32 UNL A   1      41.536  25.802  29.809  1.00  0.00    +0.000 H 
ATOM     27  C19 UNL A   1      40.914  26.800  28.058  1.00  0.00    +0.000 C 
ATOM    110  H20 UNL A   1      39.818  25.186  25.338  1.00  0.00    +0.000 H 
ATOM    111  H21 UNL A   1      40.061  27.457  26.229  1.00  0.00    +0.000 H 
ATOM     85  C58 UNL A   1      41.346  25.713  28.798  1.00  0.00    +0.000 C 
ATOM     86  C59 UNL A   1      41.514  24.525  28.160  1.00  0.00    +0.000 C 
ATOM     24  C16 UNL A   1      40.843  24.295  26.967  1.00  0.00    +0.000 C 
ATOM     25  C17 UNL A   1      40.287  25.353  26.242  1.00  0.00    +0.000 C 
ATOM     26  C18 UNL A   1      40.380  26.639  26.771  1.00  0.00    +0.000 C 
ATOM    123  H33 UNL A   1      42.133  23.801  28.557  1.00  0.00    +0.000 H 
BRANCH   24   22
ATOM     22  C15 UNL A   1      40.711  22.884  26.564  1.00  0.00    +0.000 C 
ATOM     23  O3  UNL A   1      41.663  22.271  26.123  1.00  0.00    +0.000 O 
BRANCH   22   21
ATOM    109  H19 UNL A   1      39.361  21.717  27.524  1.00  0.00    +0.000 H 
ATOM     21  N5  UNL A   1      39.468  22.286  26.729  1.00  0.00    +0.000 N 
BRANCH   21   20
ATOM    108  H18 UNL A   1      37.738  21.495  25.925  1.00  0.00    +0.000 H 
ATOM    107  H17 UNL A   1      38.629  22.581  24.852  1.00  0.00    +0.000 H 
ATOM     20  C14 UNL A   1      38.296  22.406  25.853  1.00  0.00    +0.000 C 
BRANCH   20   19
ATOM    105  H15 UNL A   1      37.338  23.572  27.338  1.00  0.00    +0.000 H 
ATOM    106  H16 UNL A   1      37.786  24.446  25.863  1.00  0.00    +0.000 H 
ATOM     19  C13 UNL A   1      37.381  23.543  26.269  1.00  0.00    +0.000 C 
BRANCH   19   18
ATOM     18  C12 UNL A   1      35.953  23.393  25.725  1.00  0.00    +0.000 C 
ATOM    103  H13 UNL A   1      35.974  22.661  24.946  1.00  0.00    +0.000 H 
ATOM    104  H14 UNL A   1      35.352  23.121  26.568  1.00  0.00    +0.000 H 
BRANCH   18   17
ATOM     17  C11 UNL A   1      35.307  24.669  25.155  1.00  0.00    +0.000 C 
ATOM    101  H11 UNL A   1      36.029  25.456  25.209  1.00  0.00    +0.000 H 
ATOM    102  H12 UNL A   1      35.007  24.427  24.157  1.00  0.00    +0.000 H 
BRANCH   17   16
ATOM     99  H9  UNL A   1      33.209  24.562  25.523  1.00  0.00    +0.000 H 
ATOM    100  H10 UNL A   1      34.198  25.010  26.926  1.00  0.00    +0.000 H 
ATOM     16  C10 UNL A   1      34.037  25.141  25.876  1.00  0.00    +0.000 C 
BRANCH   16   15
ATOM     97  H7  UNL A   1      32.844  26.890  26.180  1.00  0.00    +0.000 H 
ATOM     98  H8  UNL A   1      34.555  27.211  25.988  1.00  0.00    +0.000 H 
ATOM     15  C9  UNL A   1      33.730  26.623  25.643  1.00  0.00    +0.000 C 
BRANCH   15   14
ATOM     14  N4  UNL A   1      33.527  26.872  24.228  1.00  0.00    +0.000 N 
ATOM     96  H6  UNL A   1      34.163  27.520  23.849  1.00  0.00    +0.000 H 
BRANCH   14   12
ATOM     12  C8  UNL A   1      32.629  26.390  23.310  1.00  0.00    +0.000 C 
ATOM     13  O2  UNL A   1      31.879  27.200  22.765  1.00  0.00    +0.000 O 
BRANCH   12   11
ATOM      8  C4  UNL A   1      32.186  22.165  22.908  1.00  0.00    +0.000 C 
ATOM      9  C5  UNL A   1      31.163  22.917  23.480  1.00  0.00    +0.000 C 
ATOM     10  C6  UNL A   1      31.324  24.304  23.566  1.00  0.00    +0.000 C 
ATOM     11  C7  UNL A   1      32.458  24.937  23.024  1.00  0.00    +0.000 C 
ATOM     87  C60 UNL A   1      33.363  24.175  22.285  1.00  0.00    +0.000 C 
ATOM     88  C61 UNL A   1      33.268  22.785  22.278  1.00  0.00    +0.000 C 
ATOM    124  H34 UNL A   1      34.105  24.642  21.740  1.00  0.00    +0.000 H 
ATOM    125  H35 UNL A   1      33.992  22.216  21.810  1.00  0.00    +0.000 H 
ATOM     94  H4  UNL A   1      30.306  22.463  23.832  1.00  0.00    +0.000 H 
ATOM     95  H5  UNL A   1      30.600  24.871  24.034  1.00  0.00    +0.000 H 
BRANCH    8    7
ATOM      4  C3  UNL A   1      32.620  18.712  23.564  1.00  0.00    +0.000 C 
ATOM      5  N1  UNL A   1      32.203  18.748  22.253  1.00  0.00    +0.000 N 
ATOM      6  N2  UNL A   1      31.829  19.987  21.963  1.00  0.00    +0.000 N 
ATOM      7  N3  UNL A   1      32.169  20.764  23.004  1.00  0.00    +0.000 N 
ATOM     89  C62 UNL A   1      32.536  19.992  24.093  1.00  0.00    +0.000 C 
BRANCH    4    2
ATOM      2  C2  UNL A   1      33.040  17.461  24.185  1.00  0.00    +0.000 C 
ATOM      3  O1  UNL A   1      32.666  17.150  25.316  1.00  0.00    +0.000 O 
BRANCH    2    1
ATOM      1  C1  UNL A   1      33.947  16.537  23.418  1.00  0.00    +0.000 C 
ATOM     91  H1  UNL A   1      33.626  15.525  23.555  1.00  0.00    +0.000 H 
ATOM     92  H2  UNL A   1      34.950  16.643  23.775  1.00  0.00    +0.000 H 
ATOM     93  H3  UNL A   1      33.911  16.784  22.377  1.00  0.00    +0.000 H 
ENDBRANCH    2    1
ENDBRANCH    4    2
BRANCH   89   90
ATOM     90  C63 UNL A   1      32.726  20.569  25.446  1.00  0.00    +0.000 C 
ATOM    126  H36 UNL A   1      32.678  19.789  26.177  1.00  0.00    +0.000 H 
ATOM    127  H37 UNL A   1      31.955  21.286  25.639  1.00  0.00    +0.000 H 
ATOM    128  H38 UNL A   1      33.681  21.048  25.498  1.00  0.00    +0.000 H 
ENDBRANCH   89   90
ENDBRANCH    8    7
ENDBRANCH   12   11
ENDBRANCH   14   12
ENDBRANCH   15   14
ENDBRANCH   16   15
ENDBRANCH   17   16
ENDBRANCH   18   17
ENDBRANCH   19   18
ENDBRANCH   20   19
ENDBRANCH   21   20
ENDBRANCH   22   21
ENDBRANCH   24   22
ENDBRANCH   28   27
BRANCH   32   33
ATOM     33  C24 UNL A   1      45.215  32.281  28.028  1.00  0.00    +0.000 C 
ATOM     34  C25 UNL A   1      44.201  33.224  27.764  1.00  0.00    +0.000 C 
ATOM     35  F1  UNL A   1      42.987  33.096  28.323  1.00  0.00    +0.000 F 
ATOM     36  C26 UNL A   1      44.380  34.268  26.854  1.00  0.00    +0.000 C 
ATOM     37  F2  UNL A   1      43.347  35.063  26.542  1.00  0.00    +0.000 F 
ATOM     38  C27 UNL A   1      45.596  34.447  26.222  1.00  0.00    +0.000 C 
ATOM     39  F3  UNL A   1      45.752  35.408  25.304  1.00  0.00    +0.000 F 
ATOM     40  C28 UNL A   1      46.638  33.592  26.512  1.00  0.00    +0.000 C 
ATOM     41  F4  UNL A   1      47.821  33.740  25.900  1.00  0.00    +0.000 F 
ATOM     42  C29 UNL A   1      46.446  32.518  27.379  1.00  0.00    +0.000 C 
ATOM     43  F5  UNL A   1      47.476  31.668  27.466  1.00  0.00    +0.000 F 
ENDBRANCH   32   33
BRANCH   49   50
ATOM     50  C35 UNL A   1      42.162  29.859  33.678  1.00  0.00    +0.000 C 
ATOM     51  C36 UNL A   1      41.693  28.548  33.479  1.00  0.00    +0.000 C 
ATOM     52  F6  UNL A   1      41.457  28.084  32.247  1.00  0.00    +0.000 F 
ATOM     53  C37 UNL A   1      41.517  27.666  34.546  1.00  0.00    +0.000 C 
ATOM     54  F7  UNL A   1      41.064  26.423  34.324  1.00  0.00    +0.000 F 
ATOM     55  C38 UNL A   1      41.847  28.061  35.830  1.00  0.00    +0.000 C 
ATOM     56  F8  UNL A   1      41.720  27.204  36.853  1.00  0.00    +0.000 F 
ATOM     57  C39 UNL A   1      42.336  29.339  36.051  1.00  0.00    +0.000 C 
ATOM     58  F9  UNL A   1      42.704  29.710  37.284  1.00  0.00    +0.000 F 
ATOM     59  C40 UNL A   1      42.480  30.230  34.990  1.00  0.00    +0.000 C 
ATOM     60  F10 UNL A   1      42.984  31.448  35.237  1.00  0.00    +0.000 F 
ENDBRANCH   49   50
BRANCH   64   65
ATOM     65  C44 UNL A   1      36.958  32.006  30.822  1.00  0.00    +0.000 C 
ATOM     66  C45 UNL A   1      36.010  32.140  31.849  1.00  0.00    +0.000 C 
ATOM     67  F11 UNL A   1      36.139  31.428  32.978  1.00  0.00    +0.000 F 
ATOM     68  C46 UNL A   1      34.955  33.056  31.759  1.00  0.00    +0.000 C 
ATOM     69  F12 UNL A   1      34.101  33.195  32.783  1.00  0.00    +0.000 F 
ATOM     70  C47 UNL A   1      34.820  33.862  30.641  1.00  0.00    +0.000 C 
ATOM     71  F13 UNL A   1      33.848  34.784  30.582  1.00  0.00    +0.000 F 
ATOM     72  C48 UNL A   1      35.724  33.740  29.602  1.00  0.00    +0.000 C 
ATOM     73  F14 UNL A   1      35.630  34.542  28.533  1.00  0.00    +0.000 F 
ATOM     74  C49 UNL A   1      36.776  32.826  29.691  1.00  0.00    +0.000 C 
ATOM     75  F15 UNL A   1      37.672  32.823  28.692  1.00  0.00    +0.000 F 
ENDBRANCH   64   65
TORSDOF 19
ENDMDL
MODEL 10
REMARK VINA RESULT:     -11.1      3.249      9.144
ROOT
ATOM     28  C20 UNL A   1      40.133  28.816  29.904  1.00  0.00    +0.000 C 
ATOM     29  C21 UNL A   1      40.619  28.673  31.297  1.00  0.00    +0.000 C 
ATOM     30  N6  UNL A   1      41.675  29.201  31.818  1.00  0.00    +0.000 N 
ATOM     31  C22 UNL A   1      41.726  28.743  33.130  1.00  0.00    +0.000 C 
ATOM     32  C23 UNL A   1      42.908  28.681  33.805  1.00  0.00    +0.000 C 
ATOM     44  C30 UNL A   1      43.920  29.460  33.135  1.00  0.00    +0.000 C 
ATOM     45  C31 UNL A   1      44.071  30.802  32.846  1.00  0.00    +0.000 C 
ATOM     46  C32 UNL A   1      44.626  30.835  31.532  1.00  0.00    +0.000 C 
ATOM     47  C33 UNL A   1      44.859  29.519  31.129  1.00  0.00    +0.000 C 
ATOM     48  N7  UNL A   1      44.784  28.800  32.296  1.00  0.00    +0.000 N 
ATOM     49  C34 UNL A   1      45.060  28.917  29.831  1.00  0.00    +0.000 C 
ATOM     61  C41 UNL A   1      44.883  27.593  29.549  1.00  0.00    +0.000 C 
ATOM     62  N8  UNL A   1      44.706  27.152  28.244  1.00  0.00    +0.000 N 
ATOM     63  C42 UNL A   1      44.019  26.046  28.356  1.00  0.00    +0.000 C 
ATOM     64  C43 UNL A   1      42.895  25.697  27.446  1.00  0.00    +0.000 C 
ATOM     76  C50 UNL A   1      41.924  26.618  27.667  1.00  0.00    +0.000 C 
ATOM     77  C51 UNL A   1      40.796  27.005  26.853  1.00  0.00    +0.000 C 
ATOM     78  C52 UNL A   1      40.132  27.985  27.498  1.00  0.00    +0.000 C 
ATOM     79  C53 UNL A   1      40.679  28.159  28.852  1.00  0.00    +0.000 C 
ATOM     80  N9  UNL A   1      41.818  27.395  28.842  1.00  0.00    +0.000 N 
ATOM     81  C54 UNL A   1      44.023  25.432  29.674  1.00  0.00    +0.000 C 
ATOM     82  C55 UNL A   1      44.477  26.467  30.389  1.00  0.00    +0.000 C 
ATOM     83  C56 UNL A   1      40.439  28.157  33.401  1.00  0.00    +0.000 C 
ATOM     84  C57 UNL A   1      39.758  27.981  32.268  1.00  0.00    +0.000 C 
ATOM    112  H22 UNL A   1      43.833  31.605  33.449  1.00  0.00    +0.000 H 
ATOM    113  H23 UNL A   1      44.821  31.683  30.977  1.00  0.00    +0.000 H 
ATOM    114  H24 UNL A   1      45.263  27.963  32.494  1.00  0.00    +0.000 H 
ATOM    115  H25 UNL A   1      40.543  26.600  25.939  1.00  0.00    +0.000 H 
ATOM    116  H26 UNL A   1      39.354  28.534  27.099  1.00  0.00    +0.000 H 
ATOM    117  H27 UNL A   1      42.484  27.388  29.568  1.00  0.00    +0.000 H 
ATOM    118  H28 UNL A   1      43.756  24.480  29.970  1.00  0.00    +0.000 H 
ATOM    119  H29 UNL A   1      44.533  26.470  31.419  1.00  0.00    +0.000 H 
ATOM    120  H30 UNL A   1      40.093  27.907  34.342  1.00  0.00    +0.000 H 
ATOM    121  H31 UNL A   1      38.863  27.490  32.114  1.00  0.00    +0.000 H 
ENDROOT
BRANCH   28   27
ATOM    122  H32 UNL A   1      39.814  31.273  29.192  1.00  0.00    +0.000 H 
ATOM     27  C19 UNL A   1      38.852  29.489  29.775  1.00  0.00    +0.000 C 
ATOM    110  H20 UNL A   1      35.526  29.115  29.714  1.00  0.00    +0.000 H 
ATOM    111  H21 UNL A   1      37.574  27.827  30.109  1.00  0.00    +0.000 H 
ATOM     85  C58 UNL A   1      38.925  30.842  29.490  1.00  0.00    +0.000 C 
ATOM     86  C59 UNL A   1      37.796  31.587  29.613  1.00  0.00    +0.000 C 
ATOM     24  C16 UNL A   1      36.559  30.960  29.556  1.00  0.00    +0.000 C 
ATOM     25  C17 UNL A   1      36.449  29.576  29.721  1.00  0.00    +0.000 C 
ATOM     26  C18 UNL A   1      37.617  28.836  29.896  1.00  0.00    +0.000 C 
ATOM    123  H33 UNL A   1      37.856  32.609  29.746  1.00  0.00    +0.000 H 
BRANCH   24   22
ATOM     22  C15 UNL A   1      35.409  31.830  29.255  1.00  0.00    +0.000 C 
ATOM     23  O3  UNL A   1      34.898  32.509  30.124  1.00  0.00    +0.000 O 
BRANCH   22   21
ATOM    109  H19 UNL A   1      35.093  32.696  27.450  1.00  0.00    +0.000 H 
ATOM     21  N5  UNL A   1      34.952  31.856  27.943  1.00  0.00    +0.000 N 
BRANCH   21   20
ATOM    108  H18 UNL A   1      34.670  29.844  27.573  1.00  0.00    +0.000 H 
ATOM    107  H17 UNL A   1      34.484  30.894  26.163  1.00  0.00    +0.000 H 
ATOM     20  C14 UNL A   1      34.286  30.774  27.207  1.00  0.00    +0.000 C 
BRANCH   20   19
ATOM    105  H15 UNL A   1      32.582  30.427  28.415  1.00  0.00    +0.000 H 
ATOM    106  H16 UNL A   1      32.437  31.773  27.271  1.00  0.00    +0.000 H 
ATOM     19  C13 UNL A   1      32.784  30.772  27.422  1.00  0.00    +0.000 C 
BRANCH   19   18
ATOM     18  C12 UNL A   1      32.038  29.870  26.428  1.00  0.00    +0.000 C 
ATOM    103  H13 UNL A   1      31.486  29.148  26.993  1.00  0.00    +0.000 H 
ATOM    104  H14 UNL A   1      31.429  30.528  25.844  1.00  0.00    +0.000 H 
BRANCH   18   17
ATOM     17  C11 UNL A   1      32.911  29.109  25.416  1.00  0.00    +0.000 C 
ATOM    101  H11 UNL A   1      33.825  29.651  25.294  1.00  0.00    +0.000 H 
ATOM    102  H12 UNL A   1      33.043  28.126  25.818  1.00  0.00    +0.000 H 
BRANCH   17   16
ATOM     99  H9  UNL A   1      32.718  29.631  23.357  1.00  0.00    +0.000 H 
ATOM    100  H10 UNL A   1      32.494  27.910  23.721  1.00  0.00    +0.000 H 
ATOM     16  C10 UNL A   1      32.288  28.915  24.026  1.00  0.00    +0.000 C 
BRANCH   16   15
ATOM     97  H7  UNL A   1      30.409  29.118  25.026  1.00  0.00    +0.000 H 
ATOM     98  H8  UNL A   1      30.523  30.008  23.521  1.00  0.00    +0.000 H 
ATOM     15  C9  UNL A   1      30.768  29.092  24.019  1.00  0.00    +0.000 C 
BRANCH   15   14
ATOM     14  N4  UNL A   1      30.142  27.987  23.316  1.00  0.00    +0.000 N 
ATOM     96  H6  UNL A   1      30.122  28.106  22.338  1.00  0.00    +0.000 H 
BRANCH   14   12
ATOM     12  C8  UNL A   1      29.571  26.812  23.734  1.00  0.00    +0.000 C 
ATOM     13  O2  UNL A   1      28.342  26.747  23.747  1.00  0.00    +0.000 O 
BRANCH   12   11
ATOM      8  C4  UNL A   1      32.180  23.774  25.207  1.00  0.00    +0.000 C 
ATOM      9  C5  UNL A   1      31.877  24.875  26.006  1.00  0.00    +0.000 C 
ATOM     10  C6  UNL A   1      30.992  25.836  25.508  1.00  0.00    +0.000 C 
ATOM     11  C7  UNL A   1      30.363  25.665  24.261  1.00  0.00    +0.000 C 
ATOM     87  C60 UNL A   1      30.537  24.459  23.581  1.00  0.00    +0.000 C 
ATOM     88  C61 UNL A   1      31.491  23.541  24.014  1.00  0.00    +0.000 C 
ATOM    124  H34 UNL A   1      29.957  24.245  22.754  1.00  0.00    +0.000 H 
ATOM    125  H35 UNL A   1      31.688  22.693  23.459  1.00  0.00    +0.000 H 
ATOM     94  H4  UNL A   1      32.296  24.978  26.944  1.00  0.00    +0.000 H 
ATOM     95  H5  UNL A   1      30.796  26.683  26.063  1.00  0.00    +0.000 H 
BRANCH    8    7
ATOM      4  C3  UNL A   1      34.985  21.632  25.501  1.00  0.00    +0.000 C 
ATOM      5  N1  UNL A   1      34.098  21.143  26.433  1.00  0.00    +0.000 N 
ATOM      6  N2  UNL A   1      33.085  21.993  26.538  1.00  0.00    +0.000 N 
ATOM      7  N3  UNL A   1      33.226  22.909  25.567  1.00  0.00    +0.000 N 
ATOM     89  C62 UNL A   1      34.478  22.813  24.980  1.00  0.00    +0.000 C 
BRANCH    4    2
ATOM      2  C2  UNL A   1      36.233  20.935  25.212  1.00  0.00    +0.000 C 
ATOM      3  O1  UNL A   1      36.244  19.741  24.913  1.00  0.00    +0.000 O 
BRANCH    2    1
ATOM      1  C1  UNL A   1      37.527  21.700  25.282  1.00  0.00    +0.000 C 
ATOM     91  H1  UNL A   1      38.291  21.158  24.764  1.00  0.00    +0.000 H 
ATOM     92  H2  UNL A   1      37.813  21.827  26.306  1.00  0.00    +0.000 H 
ATOM     93  H3  UNL A   1      37.400  22.660  24.826  1.00  0.00    +0.000 H 
ENDBRANCH    2    1
ENDBRANCH    4    2
BRANCH   89   90
ATOM     90  C63 UNL A   1      34.999  23.846  24.052  1.00  0.00    +0.000 C 
ATOM    126  H36 UNL A   1      36.064  23.768  23.993  1.00  0.00    +0.000 H 
ATOM    127  H37 UNL A   1      34.732  24.818  24.414  1.00  0.00    +0.000 H 
ATOM    128  H38 UNL A   1      34.576  23.699  23.080  1.00  0.00    +0.000 H 
ENDBRANCH   89   90
ENDBRANCH    8    7
ENDBRANCH   12   11
ENDBRANCH   14   12
ENDBRANCH   15   14
ENDBRANCH   16   15
ENDBRANCH   17   16
ENDBRANCH   18   17
ENDBRANCH   19   18
ENDBRANCH   20   19
ENDBRANCH   21   20
ENDBRANCH   22   21
ENDBRANCH   24   22
ENDBRANCH   28   27
BRANCH   32   33
ATOM     33  C24 UNL A   1      43.254  27.654  34.853  1.00  0.00    +0.000 C 
ATOM     34  C25 UNL A   1      43.610  28.090  36.145  1.00  0.00    +0.000 C 
ATOM     35  F1  UNL A   1      43.395  29.360  36.521  1.00  0.00    +0.000 F 
ATOM     36  C26 UNL A   1      44.273  27.258  37.050  1.00  0.00    +0.000 C 
ATOM     37  F2  UNL A   1      44.704  27.755  38.218  1.00  0.00    +0.000 F 
ATOM     38  C27 UNL A   1      44.550  25.944  36.723  1.00  0.00    +0.000 C 
ATOM     39  F3  UNL A   1      45.241  25.163  37.562  1.00  0.00    +0.000 F 
ATOM     40  C28 UNL A   1      44.149  25.456  35.497  1.00  0.00    +0.000 C 
ATOM     41  F4  UNL A   1      44.419  24.189  35.155  1.00  0.00    +0.000 F 
ATOM     42  C29 UNL A   1      43.534  26.299  34.573  1.00  0.00    +0.000 C 
ATOM     43  F5  UNL A   1      43.329  25.761  33.365  1.00  0.00    +0.000 F 
ENDBRANCH   32   33
BRANCH   49   50
ATOM     50  C35 UNL A   1      45.266  29.860  28.673  1.00  0.00    +0.000 C 
ATOM     51  C36 UNL A   1      44.224  30.535  28.013  1.00  0.00    +0.000 C 
ATOM     52  F6  UNL A   1      42.947  30.322  28.352  1.00  0.00    +0.000 F 
ATOM     53  C37 UNL A   1      44.480  31.490  27.030  1.00  0.00    +0.000 C 
ATOM     54  F7  UNL A   1      43.464  32.113  26.415  1.00  0.00    +0.000 F 
ATOM     55  C38 UNL A   1      45.785  31.825  26.715  1.00  0.00    +0.000 C 
ATOM     56  F8  UNL A   1      46.037  32.773  25.802  1.00  0.00    +0.000 F 
ATOM     57  C39 UNL A   1      46.832  31.195  27.370  1.00  0.00    +0.000 C 
ATOM     58  F9  UNL A   1      48.096  31.550  27.105  1.00  0.00    +0.000 F 
ATOM     59  C40 UNL A   1      46.575  30.216  28.327  1.00  0.00    +0.000 C 
ATOM     60  F10 UNL A   1      47.613  29.649  28.961  1.00  0.00    +0.000 F 
ENDBRANCH   49   50
BRANCH   64   65
ATOM     65  C44 UNL A   1      42.769  24.379  26.785  1.00  0.00    +0.000 C 
ATOM     66  C45 UNL A   1      43.378  24.120  25.546  1.00  0.00    +0.000 C 
ATOM     67  F11 UNL A   1      43.903  25.126  24.832  1.00  0.00    +0.000 F 
ATOM     68  C46 UNL A   1      43.516  22.816  25.055  1.00  0.00    +0.000 C 
ATOM     69  F12 UNL A   1      44.151  22.602  23.895  1.00  0.00    +0.000 F 
ATOM     70  C47 UNL A   1      43.051  21.737  25.790  1.00  0.00    +0.000 C 
ATOM     71  F13 UNL A   1      43.239  20.485  25.351  1.00  0.00    +0.000 F 
ATOM     72  C48 UNL A   1      42.427  21.960  27.003  1.00  0.00    +0.000 C 
ATOM     73  F14 UNL A   1      42.008  20.924  27.743  1.00  0.00    +0.000 F 
ATOM     74  C49 UNL A   1      42.288  23.260  27.493  1.00  0.00    +0.000 C 
ATOM     75  F15 UNL A   1      41.760  23.401  28.718  1.00  0.00    +0.000 F 
ENDBRANCH   64   65
TORSDOF 19
ENDMDL
