MODEL 1
REMARK VINA RESULT:     -11.6      0.000      0.000
ROOT
ATOM    129  H36 UNL A   1      39.774  33.324  30.320  1.00  0.00    +0.000 H 
ATOM    130  H37 UNL A   1      42.286  32.899  30.706  1.00  0.00    +0.000 H 
ATOM    131  H38 UNL A   1      43.338  29.777  25.773  1.00  0.00    +0.000 H 
ATOM    132  H39 UNL A   1      40.977  28.837  26.227  1.00  0.00    +0.000 H 
ATOM     35  C29 UNL A   1      40.702  27.840  28.914  1.00  0.00    +0.000 C 
ATOM     36  C30 UNL A   1      41.823  28.616  28.323  1.00  0.00    +0.000 C 
ATOM     37  N5  UNL A   1      42.955  28.904  28.875  1.00  0.00    +0.000 N 
ATOM     38  C31 UNL A   1      43.639  29.686  27.948  1.00  0.00    +0.000 C 
ATOM     39  C32 UNL A   1      44.529  30.628  28.367  1.00  0.00    +0.000 C 
ATOM     51  C39 UNL A   1      44.888  30.407  29.748  1.00  0.00    +0.000 C 
ATOM     52  C40 UNL A   1      45.524  29.410  30.457  1.00  0.00    +0.000 C 
ATOM     53  C41 UNL A   1      44.862  29.370  31.723  1.00  0.00    +0.000 C 
ATOM     54  C42 UNL A   1      43.907  30.386  31.753  1.00  0.00    +0.000 C 
ATOM     55  N6  UNL A   1      44.209  31.162  30.669  1.00  0.00    +0.000 N 
ATOM     56  C43 UNL A   1      42.743  30.612  32.582  1.00  0.00    +0.000 C 
ATOM     68  C50 UNL A   1      41.720  31.468  32.290  1.00  0.00    +0.000 C 
ATOM     69  N7  UNL A   1      40.459  31.258  32.825  1.00  0.00    +0.000 N 
ATOM     70  C51 UNL A   1      39.639  31.749  31.936  1.00  0.00    +0.000 C 
ATOM     71  C52 UNL A   1      38.341  31.124  31.593  1.00  0.00    +0.000 C 
ATOM     83  C59 UNL A   1      38.630  29.937  31.005  1.00  0.00    +0.000 C 
ATOM     84  C60 UNL A   1      37.799  28.768  30.831  1.00  0.00    +0.000 C 
ATOM     85  C61 UNL A   1      38.536  27.816  30.225  1.00  0.00    +0.000 C 
ATOM     86  C62 UNL A   1      39.824  28.374  29.795  1.00  0.00    +0.000 C 
ATOM     87  N8  UNL A   1      39.862  29.612  30.397  1.00  0.00    +0.000 N 
ATOM     88  C63 UNL A   1      40.224  32.675  30.984  1.00  0.00    +0.000 C 
ATOM     89  C64 UNL A   1      41.518  32.442  31.221  1.00  0.00    +0.000 C 
ATOM     90  C65 UNL A   1      42.955  29.516  26.695  1.00  0.00    +0.000 C 
ATOM     91  C66 UNL A   1      41.751  28.972  26.895  1.00  0.00    +0.000 C 
ATOM    123  H30 UNL A   1      46.308  28.819  30.141  1.00  0.00    +0.000 H 
ATOM    124  H31 UNL A   1      45.059  28.702  32.486  1.00  0.00    +0.000 H 
ATOM    125  H32 UNL A   1      43.976  32.113  30.567  1.00  0.00    +0.000 H 
ATOM    126  H33 UNL A   1      36.813  28.678  31.119  1.00  0.00    +0.000 H 
ATOM    127  H34 UNL A   1      38.238  26.838  30.084  1.00  0.00    +0.000 H 
ATOM    128  H35 UNL A   1      40.652  30.200  30.402  1.00  0.00    +0.000 H 
ENDROOT
BRANCH   35   34
ATOM     33  C27 UNL A   1      39.358  26.294  27.476  1.00  0.00    +0.000 C 
ATOM     34  C28 UNL A   1      40.480  26.544  28.283  1.00  0.00    +0.000 C 
ATOM    133  H40 UNL A   1      42.121  25.684  29.286  1.00  0.00    +0.000 H 
ATOM    134  H41 UNL A   1      42.003  23.621  28.028  1.00  0.00    +0.000 H 
ATOM    121  H28 UNL A   1      38.273  24.778  26.477  1.00  0.00    +0.000 H 
ATOM    122  H29 UNL A   1      38.717  27.062  27.222  1.00  0.00    +0.000 H 
ATOM     92  C67 UNL A   1      41.368  25.524  28.599  1.00  0.00    +0.000 C 
ATOM     93  C68 UNL A   1      41.233  24.308  27.991  1.00  0.00    +0.000 C 
ATOM     31  C25 UNL A   1      40.053  23.999  27.323  1.00  0.00    +0.000 C 
ATOM     32  C26 UNL A   1      39.120  24.998  27.023  1.00  0.00    +0.000 C 
BRANCH   31   29
ATOM     29  C24 UNL A   1      39.815  22.582  27.001  1.00  0.00    +0.000 C 
ATOM     30  O2  UNL A   1      40.558  21.711  27.445  1.00  0.00    +0.000 O 
BRANCH   29   28
ATOM     28  N4  UNL A   1      38.737  22.259  26.194  1.00  0.00    +0.000 N 
ATOM    120  H27 UNL A   1      38.077  22.970  26.025  1.00  0.00    +0.000 H 
BRANCH   28   27
ATOM     27  C23 UNL A   1      38.483  20.957  25.567  1.00  0.00    +0.000 C 
ATOM    118  H25 UNL A   1      39.353  20.672  25.014  1.00  0.00    +0.000 H 
ATOM    119  H26 UNL A   1      38.261  20.264  26.351  1.00  0.00    +0.000 H 
BRANCH   27   26
ATOM     26  C22 UNL A   1      37.291  20.971  24.622  1.00  0.00    +0.000 C 
ATOM    116  H23 UNL A   1      36.732  21.864  24.804  1.00  0.00    +0.000 H 
ATOM    117  H24 UNL A   1      37.691  20.919  23.631  1.00  0.00    +0.000 H 
BRANCH   26   25
ATOM     25  C21 UNL A   1      36.342  19.774  24.771  1.00  0.00    +0.000 C 
ATOM    114  H21 UNL A   1      36.360  19.232  23.848  1.00  0.00    +0.000 H 
ATOM    115  H22 UNL A   1      36.708  19.233  25.618  1.00  0.00    +0.000 H 
BRANCH   25   24
ATOM    113  H20 UNL A   1      34.638  20.964  24.537  1.00  0.00    +0.000 H 
ATOM    112  H19 UNL A   1      34.797  20.202  26.160  1.00  0.00    +0.000 H 
ATOM     24  C20 UNL A   1      34.875  20.085  25.099  1.00  0.00    +0.000 C 
BRANCH   24   23
ATOM    111  H18 UNL A   1      33.327  18.738  25.557  1.00  0.00    +0.000 H 
ATOM    110  H17 UNL A   1      34.364  18.232  24.193  1.00  0.00    +0.000 H 
ATOM     23  C19 UNL A   1      33.842  19.037  24.668  1.00  0.00    +0.000 C 
BRANCH   23   22
ATOM    108  H15 UNL A   1      33.148  19.449  22.704  1.00  0.00    +0.000 H 
ATOM    109  H16 UNL A   1      31.895  18.968  23.860  1.00  0.00    +0.000 H 
ATOM     22  C18 UNL A   1      32.780  19.549  23.704  1.00  0.00    +0.000 C 
BRANCH   22   21
ATOM    107  H14 UNL A   1      32.223  21.236  24.851  1.00  0.00    +0.000 H 
ATOM     21  N3  UNL A   1      32.437  20.941  23.936  1.00  0.00    +0.000 N 
BRANCH   21    2
ATOM      1  O1  UNL A   1      31.482  21.913  22.096  1.00  0.00    +0.000 O 
ATOM      2  C1  UNL A   1      32.405  21.862  22.907  1.00  0.00    +0.000 C 
BRANCH    2    3
ATOM      3  C2  UNL A   1      33.617  22.760  22.767  1.00  0.00    +0.000 C 
ATOM     94  H1  UNL A   1      33.906  22.766  21.737  1.00  0.00    +0.000 H 
ATOM     95  H2  UNL A   1      34.363  22.355  23.418  1.00  0.00    +0.000 H 
BRANCH    3    4
ATOM      4  N1  UNL A   1      33.421  24.139  23.189  1.00  0.00    +0.000 N 
ATOM      5  C3  UNL A   1      33.128  25.161  22.323  1.00  0.00    +0.000 C 
ATOM      6  N2  UNL A   1      32.892  26.285  22.955  1.00  0.00    +0.000 N 
ATOM      7  C4  UNL A   1      33.036  25.984  24.286  1.00  0.00    +0.000 C 
ATOM     14  C11 UNL A   1      33.359  24.645  24.474  1.00  0.00    +0.000 C 
ATOM     96  H3  UNL A   1      33.096  25.057  21.297  1.00  0.00    +0.000 H 
BRANCH    7    8
ATOM     97  H4  UNL A   1      30.818  26.427  25.696  1.00  0.00    +0.000 H 
ATOM     98  H5  UNL A   1      30.531  27.927  27.583  1.00  0.00    +0.000 H 
ATOM     99  H6  UNL A   1      32.371  29.332  28.310  1.00  0.00    +0.000 H 
ATOM    100  H7  UNL A   1      34.493  29.259  27.138  1.00  0.00    +0.000 H 
ATOM    101  H8  UNL A   1      34.789  27.749  25.263  1.00  0.00    +0.000 H 
ATOM      8  C5  UNL A   1      32.835  26.949  25.349  1.00  0.00    +0.000 C 
ATOM      9  C6  UNL A   1      31.604  27.018  26.009  1.00  0.00    +0.000 C 
ATOM     10  C7  UNL A   1      31.437  27.885  27.091  1.00  0.00    +0.000 C 
ATOM     11  C8  UNL A   1      32.493  28.697  27.506  1.00  0.00    +0.000 C 
ATOM     12  C9  UNL A   1      33.715  28.650  26.836  1.00  0.00    +0.000 C 
ATOM     13  C10 UNL A   1      33.885  27.780  25.759  1.00  0.00    +0.000 C 
ENDBRANCH    7    8
BRANCH   14   15
ATOM    102  H9  UNL A   1      35.653  23.925  25.647  1.00  0.00    +0.000 H 
ATOM    103  H10 UNL A   1      35.958  22.546  27.619  1.00  0.00    +0.000 H 
ATOM    104  H11 UNL A   1      34.032  21.758  28.865  1.00  0.00    +0.000 H 
ATOM    105  H12 UNL A   1      31.795  22.290  28.095  1.00  0.00    +0.000 H 
ATOM    106  H13 UNL A   1      31.490  23.579  26.069  1.00  0.00    +0.000 H 
ATOM     15  C12 UNL A   1      33.542  23.898  25.716  1.00  0.00    +0.000 C 
ATOM     16  C13 UNL A   1      34.830  23.577  26.163  1.00  0.00    +0.000 C 
ATOM     17  C14 UNL A   1      35.006  22.787  27.303  1.00  0.00    +0.000 C 
ATOM     18  C15 UNL A   1      33.900  22.324  28.013  1.00  0.00    +0.000 C 
ATOM     19  C16 UNL A   1      32.616  22.628  27.569  1.00  0.00    +0.000 C 
ATOM     20  C17 UNL A   1      32.443  23.389  26.414  1.00  0.00    +0.000 C 
ENDBRANCH   14   15
ENDBRANCH    3    4
ENDBRANCH    2    3
ENDBRANCH   21    2
ENDBRANCH   22   21
ENDBRANCH   23   22
ENDBRANCH   24   23
ENDBRANCH   25   24
ENDBRANCH   26   25
ENDBRANCH   27   26
ENDBRANCH   28   27
ENDBRANCH   29   28
ENDBRANCH   31   29
ENDBRANCH   35   34
BRANCH   39   40
ATOM     40  C33 UNL A   1      44.718  31.987  27.717  1.00  0.00    +0.000 C 
ATOM     41  C34 UNL A   1      45.914  32.237  27.009  1.00  0.00    +0.000 C 
ATOM     42  F1  UNL A   1      46.732  31.229  26.672  1.00  0.00    +0.000 F 
ATOM     43  C35 UNL A   1      46.349  33.534  26.721  1.00  0.00    +0.000 C 
ATOM     44  F2  UNL A   1      47.555  33.725  26.171  1.00  0.00    +0.000 F 
ATOM     45  C36 UNL A   1      45.577  34.626  27.069  1.00  0.00    +0.000 C 
ATOM     46  F3  UNL A   1      46.020  35.872  26.855  1.00  0.00    +0.000 F 
ATOM     47  C37 UNL A   1      44.364  34.421  27.688  1.00  0.00    +0.000 C 
ATOM     48  F4  UNL A   1      43.609  35.468  28.052  1.00  0.00    +0.000 F 
ATOM     49  C38 UNL A   1      43.951  33.132  28.024  1.00  0.00    +0.000 C 
ATOM     50  F5  UNL A   1      42.833  33.076  28.754  1.00  0.00    +0.000 F 
ENDBRANCH   39   40
BRANCH   56   57
ATOM     65  F9  UNL A   1      43.667  29.611  37.233  1.00  0.00    +0.000 F 
ATOM     66  C49 UNL A   1      43.108  30.075  34.985  1.00  0.00    +0.000 C 
ATOM     67  F10 UNL A   1      43.716  31.267  35.101  1.00  0.00    +0.000 F 
ATOM     57  C44 UNL A   1      42.558  29.687  33.755  1.00  0.00    +0.000 C 
ATOM     58  C45 UNL A   1      41.978  28.408  33.682  1.00  0.00    +0.000 C 
ATOM     59  F6  UNL A   1      41.510  27.933  32.521  1.00  0.00    +0.000 F 
ATOM     60  C46 UNL A   1      41.920  27.577  34.800  1.00  0.00    +0.000 C 
ATOM     61  F7  UNL A   1      41.347  26.367  34.711  1.00  0.00    +0.000 F 
ATOM     62  C47 UNL A   1      42.480  27.985  36.000  1.00  0.00    +0.000 C 
ATOM     63  F8  UNL A   1      42.460  27.172  37.065  1.00  0.00    +0.000 F 
ATOM     64  C48 UNL A   1      43.083  29.229  36.088  1.00  0.00    +0.000 C 
ENDBRANCH   56   57
BRANCH   71   72
ATOM     72  C53 UNL A   1      37.069  31.883  31.603  1.00  0.00    +0.000 C 
ATOM     73  C54 UNL A   1      36.416  32.185  32.810  1.00  0.00    +0.000 C 
ATOM     74  F11 UNL A   1      36.797  31.588  33.949  1.00  0.00    +0.000 F 
ATOM     75  C55 UNL A   1      35.418  33.163  32.880  1.00  0.00    +0.000 C 
ATOM     76  F12 UNL A   1      34.867  33.474  34.062  1.00  0.00    +0.000 F 
ATOM     77  C56 UNL A   1      35.040  33.859  31.744  1.00  0.00    +0.000 C 
ATOM     78  F13 UNL A   1      34.135  34.845  31.823  1.00  0.00    +0.000 F 
ATOM     79  C57 UNL A   1      35.639  33.560  30.533  1.00  0.00    +0.000 C 
ATOM     80  F14 UNL A   1      35.308  34.254  29.435  1.00  0.00    +0.000 F 
ATOM     81  C58 UNL A   1      36.636  32.586  30.463  1.00  0.00    +0.000 C 
ATOM     82  F15 UNL A   1      37.243  32.413  29.280  1.00  0.00    +0.000 F 
ENDBRANCH   71   72
TORSDOF 18
ENDMDL
MODEL 2
REMARK VINA RESULT:     -11.6      3.161      8.894
ROOT
ATOM    129  H36 UNL A   1      44.154  24.852  29.432  1.00  0.00    +0.000 H 
ATOM    130  H37 UNL A   1      45.098  26.649  31.020  1.00  0.00    +0.000 H 
ATOM    131  H38 UNL A   1      40.029  28.024  33.776  1.00  0.00    +0.000 H 
ATOM    132  H39 UNL A   1      39.007  27.649  31.436  1.00  0.00    +0.000 H 
ATOM     35  C29 UNL A   1      40.369  29.163  29.400  1.00  0.00    +0.000 C 
ATOM     36  C30 UNL A   1      40.755  28.960  30.820  1.00  0.00    +0.000 C 
ATOM     37  N5  UNL A   1      41.732  29.519  31.454  1.00  0.00    +0.000 N 
ATOM     38  C31 UNL A   1      41.716  28.970  32.734  1.00  0.00    +0.000 C 
ATOM     39  C32 UNL A   1      42.872  28.846  33.444  1.00  0.00    +0.000 C 
ATOM     51  C39 UNL A   1      43.911  29.663  32.864  1.00  0.00    +0.000 C 
ATOM     52  C40 UNL A   1      44.113  31.012  32.663  1.00  0.00    +0.000 C 
ATOM     53  C41 UNL A   1      44.806  31.107  31.417  1.00  0.00    +0.000 C 
ATOM     54  C42 UNL A   1      45.056  29.815  30.954  1.00  0.00    +0.000 C 
ATOM     55  N6  UNL A   1      44.783  29.015  32.028  1.00  0.00    +0.000 N 
ATOM     56  C43 UNL A   1      45.391  29.292  29.647  1.00  0.00    +0.000 C 
ATOM     68  C50 UNL A   1      45.287  27.983  29.272  1.00  0.00    +0.000 C 
ATOM     69  N7  UNL A   1      45.124  27.651  27.936  1.00  0.00    +0.000 N 
ATOM     70  C51 UNL A   1      44.440  26.540  27.955  1.00  0.00    +0.000 C 
ATOM     71  C52 UNL A   1      43.373  26.222  26.977  1.00  0.00    +0.000 C 
ATOM     83  C59 UNL A   1      42.372  27.110  27.200  1.00  0.00    +0.000 C 
ATOM     84  C60 UNL A   1      41.294  27.522  26.332  1.00  0.00    +0.000 C 
ATOM     85  C61 UNL A   1      40.570  28.458  26.976  1.00  0.00    +0.000 C 
ATOM     86  C62 UNL A   1      41.016  28.567  28.371  1.00  0.00    +0.000 C 
ATOM     87  N8  UNL A   1      42.172  27.819  28.405  1.00  0.00    +0.000 N 
ATOM     88  C63 UNL A   1      44.450  25.816  29.213  1.00  0.00    +0.000 C 
ATOM     89  C64 UNL A   1      44.956  26.764  30.005  1.00  0.00    +0.000 C 
ATOM     90  C65 UNL A   1      40.439  28.326  32.879  1.00  0.00    +0.000 C 
ATOM     91  C66 UNL A   1      39.858  28.175  31.685  1.00  0.00    +0.000 C 
ATOM    123  H30 UNL A   1      43.825  31.788  33.280  1.00  0.00    +0.000 H 
ATOM    124  H31 UNL A   1      45.075  31.983  30.942  1.00  0.00    +0.000 H 
ATOM    125  H32 UNL A   1      45.154  28.115  32.176  1.00  0.00    +0.000 H 
ATOM    126  H33 UNL A   1      41.110  27.161  25.383  1.00  0.00    +0.000 H 
ATOM    127  H34 UNL A   1      39.813  29.016  26.551  1.00  0.00    +0.000 H 
ATOM    128  H35 UNL A   1      42.784  27.783  29.175  1.00  0.00    +0.000 H 
ENDROOT
BRANCH   35   34
ATOM     33  C27 UNL A   1      37.959  29.188  28.724  1.00  0.00    +0.000 C 
ATOM     34  C28 UNL A   1      39.093  29.848  29.224  1.00  0.00    +0.000 C 
ATOM    133  H40 UNL A   1      39.936  31.713  29.723  1.00  0.00    +0.000 H 
ATOM    134  H41 UNL A   1      37.795  32.838  29.770  1.00  0.00    +0.000 H 
ATOM    121  H28 UNL A   1      35.987  29.475  28.016  1.00  0.00    +0.000 H 
ATOM    122  H29 UNL A   1      37.974  28.168  28.570  1.00  0.00    +0.000 H 
ATOM     92  C67 UNL A   1      39.069  31.214  29.470  1.00  0.00    +0.000 C 
ATOM     93  C68 UNL A   1      37.885  31.890  29.372  1.00  0.00    +0.000 C 
ATOM     31  C25 UNL A   1      36.804  31.295  28.733  1.00  0.00    +0.000 C 
ATOM     32  C26 UNL A   1      36.812  29.927  28.437  1.00  0.00    +0.000 C 
BRANCH   31   29
ATOM     29  C24 UNL A   1      35.689  32.173  28.340  1.00  0.00    +0.000 C 
ATOM     30  O2  UNL A   1      35.912  33.272  27.839  1.00  0.00    +0.000 O 
BRANCH   29   28
ATOM     28  N4  UNL A   1      34.393  31.730  28.544  1.00  0.00    +0.000 N 
ATOM    120  H27 UNL A   1      34.116  31.575  29.476  1.00  0.00    +0.000 H 
BRANCH   28   27
ATOM     27  C23 UNL A   1      33.392  31.470  27.504  1.00  0.00    +0.000 C 
ATOM    118  H25 UNL A   1      32.428  31.732  27.888  1.00  0.00    +0.000 H 
ATOM    119  H26 UNL A   1      33.657  32.060  26.652  1.00  0.00    +0.000 H 
BRANCH   27   26
ATOM     26  C22 UNL A   1      33.357  30.016  27.058  1.00  0.00    +0.000 C 
ATOM    116  H23 UNL A   1      33.927  29.931  26.157  1.00  0.00    +0.000 H 
ATOM    117  H24 UNL A   1      33.759  29.442  27.866  1.00  0.00    +0.000 H 
BRANCH   26   25
ATOM     25  C21 UNL A   1      31.952  29.462  26.789  1.00  0.00    +0.000 C 
ATOM    114  H21 UNL A   1      31.247  30.191  27.131  1.00  0.00    +0.000 H 
ATOM    115  H22 UNL A   1      31.925  29.268  25.738  1.00  0.00    +0.000 H 
BRANCH   25   24
ATOM    113  H20 UNL A   1      30.891  28.365  28.221  1.00  0.00    +0.000 H 
ATOM    112  H19 UNL A   1      32.502  27.681  27.803  1.00  0.00    +0.000 H 
ATOM     24  C20 UNL A   1      31.593  28.123  27.451  1.00  0.00    +0.000 C 
BRANCH   24   23
ATOM    111  H18 UNL A   1      29.840  27.308  26.625  1.00  0.00    +0.000 H 
ATOM    110  H17 UNL A   1      31.136  26.115  26.926  1.00  0.00    +0.000 H 
ATOM     23  C19 UNL A   1      30.886  27.092  26.565  1.00  0.00    +0.000 C 
BRANCH   23   22
ATOM    108  H15 UNL A   1      30.361  27.282  24.516  1.00  0.00    +0.000 H 
ATOM    109  H16 UNL A   1      31.922  27.989  24.961  1.00  0.00    +0.000 H 
ATOM     22  C18 UNL A   1      31.257  27.161  25.089  1.00  0.00    +0.000 C 
BRANCH   22   21
ATOM    107  H14 UNL A   1      31.534  25.420  23.921  1.00  0.00    +0.000 H 
ATOM     21  N3  UNL A   1      31.946  25.969  24.627  1.00  0.00    +0.000 N 
BRANCH   21    2
ATOM      1  O1  UNL A   1      34.234  25.993  24.701  1.00  0.00    +0.000 O 
ATOM      2  C1  UNL A   1      33.165  25.586  25.152  1.00  0.00    +0.000 C 
BRANCH    2    3
ATOM      3  C2  UNL A   1      33.128  24.559  26.264  1.00  0.00    +0.000 C 
ATOM     94  H1  UNL A   1      32.492  24.933  27.039  1.00  0.00    +0.000 H 
ATOM     95  H2  UNL A   1      34.143  24.420  26.573  1.00  0.00    +0.000 H 
BRANCH    3    4
ATOM      4  N1  UNL A   1      32.641  23.243  25.878  1.00  0.00    +0.000 N 
ATOM      5  C3  UNL A   1      31.321  22.875  25.941  1.00  0.00    +0.000 C 
ATOM      6  N2  UNL A   1      31.122  21.681  25.439  1.00  0.00    +0.000 N 
ATOM      7  C4  UNL A   1      32.360  21.253  25.031  1.00  0.00    +0.000 C 
ATOM     14  C11 UNL A   1      33.338  22.208  25.282  1.00  0.00    +0.000 C 
ATOM     96  H3  UNL A   1      30.575  23.469  26.335  1.00  0.00    +0.000 H 
BRANCH    7    8
ATOM     97  H4  UNL A   1      33.445  19.062  26.090  1.00  0.00    +0.000 H 
ATOM     98  H5  UNL A   1      33.682  16.875  25.064  1.00  0.00    +0.000 H 
ATOM     99  H6  UNL A   1      32.990  16.529  22.764  1.00  0.00    +0.000 H 
ATOM    100  H7  UNL A   1      32.082  18.375  21.478  1.00  0.00    +0.000 H 
ATOM    101  H8  UNL A   1      31.829  20.557  22.506  1.00  0.00    +0.000 H 
ATOM      8  C5  UNL A   1      32.591  19.975  24.388  1.00  0.00    +0.000 C 
ATOM      9  C6  UNL A   1      33.143  18.915  25.115  1.00  0.00    +0.000 C 
ATOM     10  C7  UNL A   1      33.285  17.658  24.522  1.00  0.00    +0.000 C 
ATOM     11  C8  UNL A   1      32.891  17.460  23.198  1.00  0.00    +0.000 C 
ATOM     12  C9  UNL A   1      32.364  18.520  22.461  1.00  0.00    +0.000 C 
ATOM     13  C10 UNL A   1      32.216  19.774  23.054  1.00  0.00    +0.000 C 
ENDBRANCH    7    8
BRANCH   14   15
ATOM    102  H9  UNL A   1      34.556  23.215  23.124  1.00  0.00    +0.000 H 
ATOM    103  H10 UNL A   1      36.895  23.041  22.506  1.00  0.00    +0.000 H 
ATOM    104  H11 UNL A   1      38.472  21.960  23.999  1.00  0.00    +0.000 H 
ATOM    105  H12 UNL A   1      37.695  20.987  26.080  1.00  0.00    +0.000 H 
ATOM    106  H13 UNL A   1      35.342  21.071  26.647  1.00  0.00    +0.000 H 
ATOM     15  C12 UNL A   1      34.763  22.188  24.958  1.00  0.00    +0.000 C 
ATOM     16  C13 UNL A   1      35.220  22.738  23.754  1.00  0.00    +0.000 C 
ATOM     17  C14 UNL A   1      36.569  22.642  23.400  1.00  0.00    +0.000 C 
ATOM     18  C15 UNL A   1      37.474  22.012  24.252  1.00  0.00    +0.000 C 
ATOM     19  C16 UNL A   1      37.027  21.452  25.445  1.00  0.00    +0.000 C 
ATOM     20  C17 UNL A   1      35.675  21.520  25.780  1.00  0.00    +0.000 C 
ENDBRANCH   14   15
ENDBRANCH    3    4
ENDBRANCH    2    3
ENDBRANCH   21    2
ENDBRANCH   22   21
ENDBRANCH   23   22
ENDBRANCH   24   23
ENDBRANCH   25   24
ENDBRANCH   26   25
ENDBRANCH   27   26
ENDBRANCH   28   27
ENDBRANCH   29   28
ENDBRANCH   31   29
ENDBRANCH   35   34
BRANCH   39   40
ATOM     40  C33 UNL A   1      43.209  27.673  34.346  1.00  0.00    +0.000 C 
ATOM     41  C34 UNL A   1      43.397  26.402  33.760  1.00  0.00    +0.000 C 
ATOM     42  F1  UNL A   1      43.558  26.278  32.435  1.00  0.00    +0.000 F 
ATOM     43  C35 UNL A   1      43.320  25.222  34.506  1.00  0.00    +0.000 C 
ATOM     44  F2  UNL A   1      43.367  24.036  33.883  1.00  0.00    +0.000 F 
ATOM     45  C36 UNL A   1      43.119  25.267  35.871  1.00  0.00    +0.000 C 
ATOM     46  F3  UNL A   1      42.979  24.138  36.580  1.00  0.00    +0.000 F 
ATOM     47  C37 UNL A   1      43.013  26.491  36.495  1.00  0.00    +0.000 C 
ATOM     48  F4  UNL A   1      42.798  26.556  37.817  1.00  0.00    +0.000 F 
ATOM     49  C38 UNL A   1      43.036  27.669  35.748  1.00  0.00    +0.000 C 
ATOM     50  F5  UNL A   1      42.772  28.777  36.445  1.00  0.00    +0.000 F 
ENDBRANCH   39   40
BRANCH   56   57
ATOM     65  F9  UNL A   1      48.655  32.070  27.386  1.00  0.00    +0.000 F 
ATOM     66  C49 UNL A   1      47.026  30.684  28.388  1.00  0.00    +0.000 C 
ATOM     67  F10 UNL A   1      47.994  30.106  29.116  1.00  0.00    +0.000 F 
ATOM     57  C44 UNL A   1      45.690  30.300  28.570  1.00  0.00    +0.000 C 
ATOM     58  C45 UNL A   1      44.715  30.974  27.814  1.00  0.00    +0.000 C 
ATOM     59  F6  UNL A   1      43.412  30.724  27.995  1.00  0.00    +0.000 F 
ATOM     60  C46 UNL A   1      45.070  31.957  26.891  1.00  0.00    +0.000 C 
ATOM     61  F7  UNL A   1      44.124  32.577  26.168  1.00  0.00    +0.000 F 
ATOM     62  C47 UNL A   1      46.399  32.322  26.739  1.00  0.00    +0.000 C 
ATOM     63  F8  UNL A   1      46.738  33.294  25.882  1.00  0.00    +0.000 F 
ATOM     64  C48 UNL A   1      47.374  31.691  27.495  1.00  0.00    +0.000 C 
ENDBRANCH   56   57
BRANCH   71   72
ATOM     72  C53 UNL A   1      43.353  24.957  26.209  1.00  0.00    +0.000 C 
ATOM     73  C54 UNL A   1      44.282  24.718  25.183  1.00  0.00    +0.000 C 
ATOM     74  F11 UNL A   1      45.042  25.720  24.716  1.00  0.00    +0.000 F 
ATOM     75  C55 UNL A   1      44.503  23.433  24.676  1.00  0.00    +0.000 C 
ATOM     76  F12 UNL A   1      45.447  23.233  23.746  1.00  0.00    +0.000 F 
ATOM     77  C56 UNL A   1      43.794  22.353  25.175  1.00  0.00    +0.000 C 
ATOM     78  F13 UNL A   1      44.054  21.112  24.741  1.00  0.00    +0.000 F 
ATOM     79  C57 UNL A   1      42.846  22.560  26.161  1.00  0.00    +0.000 C 
ATOM     80  F14 UNL A   1      42.181  21.517  26.679  1.00  0.00    +0.000 F 
ATOM     81  C58 UNL A   1      42.627  23.842  26.669  1.00  0.00    +0.000 C 
ATOM     82  F15 UNL A   1      41.765  23.959  27.690  1.00  0.00    +0.000 F 
ENDBRANCH   71   72
TORSDOF 18
ENDMDL
MODEL 3
REMARK VINA RESULT:     -11.2      5.072     11.179
ROOT
ATOM    129  H36 UNL A   1      43.908  24.742  29.285  1.00  0.00    +0.000 H 
ATOM    130  H37 UNL A   1      44.609  26.424  31.108  1.00  0.00    +0.000 H 
ATOM    131  H38 UNL A   1      39.224  27.435  33.380  1.00  0.00    +0.000 H 
ATOM    132  H39 UNL A   1      38.478  27.230  30.917  1.00  0.00    +0.000 H 
ATOM     35  C29 UNL A   1      40.001  28.942  29.174  1.00  0.00    +0.000 C 
ATOM     36  C30 UNL A   1      40.237  28.632  30.608  1.00  0.00    +0.000 C 
ATOM     37  N5  UNL A   1      41.119  29.161  31.390  1.00  0.00    +0.000 N 
ATOM     38  C31 UNL A   1      40.982  28.507  32.612  1.00  0.00    +0.000 C 
ATOM     39  C32 UNL A   1      42.056  28.355  33.435  1.00  0.00    +0.000 C 
ATOM     51  C39 UNL A   1      43.124  29.243  33.042  1.00  0.00    +0.000 C 
ATOM     52  C40 UNL A   1      43.300  30.609  32.974  1.00  0.00    +0.000 C 
ATOM     53  C41 UNL A   1      44.121  30.825  31.825  1.00  0.00    +0.000 C 
ATOM     54  C42 UNL A   1      44.465  29.583  31.290  1.00  0.00    +0.000 C 
ATOM     55  N6  UNL A   1      44.104  28.690  32.260  1.00  0.00    +0.000 N 
ATOM     56  C43 UNL A   1      44.960  29.179  29.992  1.00  0.00    +0.000 C 
ATOM     68  C50 UNL A   1      44.942  27.903  29.504  1.00  0.00    +0.000 C 
ATOM     69  N7  UNL A   1      44.938  27.680  28.136  1.00  0.00    +0.000 N 
ATOM     70  C51 UNL A   1      44.295  26.554  27.989  1.00  0.00    +0.000 C 
ATOM     71  C52 UNL A   1      43.353  26.292  26.876  1.00  0.00    +0.000 C 
ATOM     83  C59 UNL A   1      42.304  27.132  27.056  1.00  0.00    +0.000 C 
ATOM     84  C60 UNL A   1      41.314  27.587  26.108  1.00  0.00    +0.000 C 
ATOM     85  C61 UNL A   1      40.491  28.447  26.740  1.00  0.00    +0.000 C 
ATOM     86  C62 UNL A   1      40.778  28.451  28.180  1.00  0.00    +0.000 C 
ATOM     87  N8  UNL A   1      41.948  27.733  28.284  1.00  0.00    +0.000 N 
ATOM     88  C63 UNL A   1      44.193  25.728  29.179  1.00  0.00    +0.000 C 
ATOM     89  C64 UNL A   1      44.576  26.620  30.096  1.00  0.00    +0.000 C 
ATOM     90  C65 UNL A   1      39.719  27.821  32.561  1.00  0.00    +0.000 C 
ATOM     91  C66 UNL A   1      39.278  27.756  31.302  1.00  0.00    +0.000 C 
ATOM    123  H30 UNL A   1      42.919  31.323  33.614  1.00  0.00    +0.000 H 
ATOM    124  H31 UNL A   1      44.410  31.744  31.454  1.00  0.00    +0.000 H 
ATOM    125  H32 UNL A   1      44.488  27.790  32.376  1.00  0.00    +0.000 H 
ATOM    126  H33 UNL A   1      41.247  27.302  25.119  1.00  0.00    +0.000 H 
ATOM    127  H34 UNL A   1      39.766  29.019  26.279  1.00  0.00    +0.000 H 
ATOM    128  H35 UNL A   1      42.473  27.649  29.112  1.00  0.00    +0.000 H 
ENDROOT
BRANCH   35   34
ATOM     33  C27 UNL A   1      37.686  28.967  28.225  1.00  0.00    +0.000 C 
ATOM     34  C28 UNL A   1      38.730  29.607  28.912  1.00  0.00    +0.000 C 
ATOM    133  H40 UNL A   1      39.440  31.440  29.671  1.00  0.00    +0.000 H 
ATOM    134  H41 UNL A   1      37.267  32.498  29.568  1.00  0.00    +0.000 H 
ATOM    121  H28 UNL A   1      35.799  29.267  27.319  1.00  0.00    +0.000 H 
ATOM    122  H29 UNL A   1      37.757  27.966  27.983  1.00  0.00    +0.000 H 
ATOM     92  C67 UNL A   1      38.627  30.943  29.275  1.00  0.00    +0.000 C 
ATOM     93  C68 UNL A   1      37.438  31.594  29.099  1.00  0.00    +0.000 C 
ATOM     31  C25 UNL A   1      36.460  31.033  28.287  1.00  0.00    +0.000 C 
ATOM     32  C26 UNL A   1      36.553  29.699  27.873  1.00  0.00    +0.000 C 
BRANCH   31   29
ATOM     29  C24 UNL A   1      35.365  31.914  27.846  1.00  0.00    +0.000 C 
ATOM     30  O2  UNL A   1      34.306  31.436  27.447  1.00  0.00    +0.000 O 
BRANCH   29   28
ATOM     28  N4  UNL A   1      35.557  33.284  27.897  1.00  0.00    +0.000 N 
ATOM    120  H27 UNL A   1      36.487  33.604  27.916  1.00  0.00    +0.000 H 
BRANCH   28   27
ATOM     27  C23 UNL A   1      34.505  34.306  27.925  1.00  0.00    +0.000 C 
ATOM    118  H25 UNL A   1      34.950  35.258  27.722  1.00  0.00    +0.000 H 
ATOM    119  H26 UNL A   1      33.779  34.037  27.186  1.00  0.00    +0.000 H 
BRANCH   27   26
ATOM     26  C22 UNL A   1      33.783  34.384  29.263  1.00  0.00    +0.000 C 
ATOM    116  H23 UNL A   1      33.131  33.540  29.338  1.00  0.00    +0.000 H 
ATOM    117  H24 UNL A   1      34.543  34.397  30.016  1.00  0.00    +0.000 H 
BRANCH   26   25
ATOM     25  C21 UNL A   1      32.948  35.655  29.466  1.00  0.00    +0.000 C 
ATOM    114  H21 UNL A   1      33.023  36.237  28.572  1.00  0.00    +0.000 H 
ATOM    115  H22 UNL A   1      31.963  35.307  29.696  1.00  0.00    +0.000 H 
BRANCH   25   24
ATOM    113  H20 UNL A   1      33.073  37.552  30.340  1.00  0.00    +0.000 H 
ATOM    112  H19 UNL A   1      34.379  36.418  30.835  1.00  0.00    +0.000 H 
ATOM     24  C20 UNL A   1      33.336  36.561  30.644  1.00  0.00    +0.000 C 
BRANCH   24   23
ATOM    111  H18 UNL A   1      31.577  36.088  31.695  1.00  0.00    +0.000 H 
ATOM    110  H17 UNL A   1      32.665  37.217  32.551  1.00  0.00    +0.000 H 
ATOM     23  C19 UNL A   1      32.585  36.328  31.960  1.00  0.00    +0.000 C 
BRANCH   23   22
ATOM    108  H15 UNL A   1      32.464  35.032  33.638  1.00  0.00    +0.000 H 
ATOM    109  H16 UNL A   1      33.103  34.293  32.161  1.00  0.00    +0.000 H 
ATOM     22  C18 UNL A   1      33.103  35.159  32.789  1.00  0.00    +0.000 C 
BRANCH   22   21
ATOM    107  H14 UNL A   1      34.889  36.241  33.123  1.00  0.00    +0.000 H 
ATOM     21  N3  UNL A   1      34.463  35.363  33.257  1.00  0.00    +0.000 N 
BRANCH   21    2
ATOM      1  O1  UNL A   1      35.428  34.384  35.088  1.00  0.00    +0.000 O 
ATOM      2  C1  UNL A   1      35.173  34.359  33.885  1.00  0.00    +0.000 C 
BRANCH    2    3
ATOM      3  C2  UNL A   1      35.709  33.255  32.997  1.00  0.00    +0.000 C 
ATOM     94  H1  UNL A   1      34.949  33.005  32.286  1.00  0.00    +0.000 H 
ATOM     95  H2  UNL A   1      35.964  32.447  33.651  1.00  0.00    +0.000 H 
BRANCH    3    4
ATOM      4  N1  UNL A   1      36.923  33.580  32.265  1.00  0.00    +0.000 N 
ATOM      5  C3  UNL A   1      36.933  34.294  31.095  1.00  0.00    +0.000 C 
ATOM      6  N2  UNL A   1      38.153  34.549  30.688  1.00  0.00    +0.000 N 
ATOM      7  C4  UNL A   1      38.971  33.980  31.631  1.00  0.00    +0.000 C 
ATOM     14  C11 UNL A   1      38.237  33.370  32.641  1.00  0.00    +0.000 C 
ATOM     96  H3  UNL A   1      36.082  34.595  30.595  1.00  0.00    +0.000 H 
BRANCH    7    8
ATOM     97  H4  UNL A   1      40.590  33.014  29.747  1.00  0.00    +0.000 H 
ATOM     98  H5  UNL A   1      42.997  33.274  29.579  1.00  0.00    +0.000 H 
ATOM     99  H6  UNL A   1      44.220  34.434  31.324  1.00  0.00    +0.000 H 
ATOM    100  H7  UNL A   1      43.041  35.316  33.253  1.00  0.00    +0.000 H 
ATOM    101  H8  UNL A   1      40.634  35.074  33.415  1.00  0.00    +0.000 H 
ATOM      8  C5  UNL A   1      40.418  34.050  31.580  1.00  0.00    +0.000 C 
ATOM      9  C6  UNL A   1      41.106  33.515  30.485  1.00  0.00    +0.000 C 
ATOM     10  C7  UNL A   1      42.493  33.659  30.392  1.00  0.00    +0.000 C 
ATOM     11  C8  UNL A   1      43.196  34.322  31.398  1.00  0.00    +0.000 C 
ATOM     12  C9  UNL A   1      42.518  34.835  32.503  1.00  0.00    +0.000 C 
ATOM     13  C10 UNL A   1      41.133  34.697  32.594  1.00  0.00    +0.000 C 
ENDBRANCH    7    8
BRANCH   14   15
ATOM    102  H9  UNL A   1      38.544  34.415  35.084  1.00  0.00    +0.000 H 
ATOM    103  H10 UNL A   1      39.467  33.358  37.062  1.00  0.00    +0.000 H 
ATOM    104  H11 UNL A   1      40.114  31.021  37.003  1.00  0.00    +0.000 H 
ATOM    105  H12 UNL A   1      39.906  29.760  34.942  1.00  0.00    +0.000 H 
ATOM    106  H13 UNL A   1      39.081  30.845  32.941  1.00  0.00    +0.000 H 
ATOM     15  C12 UNL A   1      38.701  32.704  33.857  1.00  0.00    +0.000 C 
ATOM     16  C13 UNL A   1      38.835  33.426  35.049  1.00  0.00    +0.000 C 
ATOM     17  C14 UNL A   1      39.362  32.815  36.190  1.00  0.00    +0.000 C 
ATOM     18  C15 UNL A   1      39.745  31.476  36.155  1.00  0.00    +0.000 C 
ATOM     19  C16 UNL A   1      39.627  30.753  34.971  1.00  0.00    +0.000 C 
ATOM     20  C17 UNL A   1      39.132  31.375  33.825  1.00  0.00    +0.000 C 
ENDBRANCH   14   15
ENDBRANCH    3    4
ENDBRANCH    2    3
ENDBRANCH   21    2
ENDBRANCH   22   21
ENDBRANCH   23   22
ENDBRANCH   24   23
ENDBRANCH   25   24
ENDBRANCH   26   25
ENDBRANCH   27   26
ENDBRANCH   28   27
ENDBRANCH   29   28
ENDBRANCH   31   29
ENDBRANCH   35   34
BRANCH   39   40
ATOM     40  C33 UNL A   1      42.333  27.120  34.273  1.00  0.00    +0.000 C 
ATOM     41  C34 UNL A   1      42.029  27.157  35.651  1.00  0.00    +0.000 C 
ATOM     42  F1  UNL A   1      41.260  28.133  36.156  1.00  0.00    +0.000 F 
ATOM     43  C35 UNL A   1      42.590  26.254  36.559  1.00  0.00    +0.000 C 
ATOM     44  F2  UNL A   1      42.381  26.414  37.873  1.00  0.00    +0.000 F 
ATOM     45  C36 UNL A   1      43.421  25.242  36.120  1.00  0.00    +0.000 C 
ATOM     46  F3  UNL A   1      44.013  24.416  36.993  1.00  0.00    +0.000 F 
ATOM     47  C37 UNL A   1      43.677  25.121  34.772  1.00  0.00    +0.000 C 
ATOM     48  F4  UNL A   1      44.497  24.157  34.327  1.00  0.00    +0.000 F 
ATOM     49  C38 UNL A   1      43.162  26.050  33.869  1.00  0.00    +0.000 C 
ATOM     50  F5  UNL A   1      43.604  25.915  32.615  1.00  0.00    +0.000 F 
ENDBRANCH   39   40
BRANCH   56   57
ATOM     65  F9  UNL A   1      48.401  32.083  28.202  1.00  0.00    +0.000 F 
ATOM     66  C49 UNL A   1      46.690  30.646  28.969  1.00  0.00    +0.000 C 
ATOM     67  F10 UNL A   1      47.604  29.975  29.688  1.00  0.00    +0.000 F 
ATOM     57  C44 UNL A   1      45.339  30.280  29.039  1.00  0.00    +0.000 C 
ATOM     58  C45 UNL A   1      44.422  31.050  28.302  1.00  0.00    +0.000 C 
ATOM     59  F6  UNL A   1      43.107  30.818  28.385  1.00  0.00    +0.000 F 
ATOM     60  C46 UNL A   1      44.849  32.111  27.503  1.00  0.00    +0.000 C 
ATOM     61  F7  UNL A   1      43.959  32.822  26.795  1.00  0.00    +0.000 F 
ATOM     62  C47 UNL A   1      46.191  32.454  27.461  1.00  0.00    +0.000 C 
ATOM     63  F8  UNL A   1      46.598  33.498  26.725  1.00  0.00    +0.000 F 
ATOM     64  C48 UNL A   1      47.109  31.728  28.202  1.00  0.00    +0.000 C 
ENDBRANCH   56   57
BRANCH   71   72
ATOM     72  C53 UNL A   1      43.461  25.094  26.012  1.00  0.00    +0.000 C 
ATOM     73  C54 UNL A   1      44.584  24.892  25.192  1.00  0.00    +0.000 C 
ATOM     74  F11 UNL A   1      45.459  25.889  24.991  1.00  0.00    +0.000 F 
ATOM     75  C55 UNL A   1      44.869  23.642  24.632  1.00  0.00    +0.000 C 
ATOM     76  F12 UNL A   1      45.987  23.470  23.912  1.00  0.00    +0.000 F 
ATOM     77  C56 UNL A   1      44.035  22.563  24.870  1.00  0.00    +0.000 C 
ATOM     78  F13 UNL A   1      44.343  21.349  24.392  1.00  0.00    +0.000 F 
ATOM     79  C57 UNL A   1      42.901  22.738  25.643  1.00  0.00    +0.000 C 
ATOM     80  F14 UNL A   1      42.107  21.691  25.911  1.00  0.00    +0.000 F 
ATOM     81  C58 UNL A   1      42.617  23.984  26.204  1.00  0.00    +0.000 C 
ATOM     82  F15 UNL A   1      41.558  24.063  27.022  1.00  0.00    +0.000 F 
ENDBRANCH   71   72
TORSDOF 18
ENDMDL
MODEL 4
REMARK VINA RESULT:     -11.1      3.214      8.786
ROOT
ATOM    129  H36 UNL A   1      43.805  24.644  29.280  1.00  0.00    +0.000 H 
ATOM    130  H37 UNL A   1      44.594  26.292  31.097  1.00  0.00    +0.000 H 
ATOM    131  H38 UNL A   1      39.272  27.572  33.383  1.00  0.00    +0.000 H 
ATOM    132  H39 UNL A   1      38.510  27.400  30.923  1.00  0.00    +0.000 H 
ATOM     35  C29 UNL A   1      40.111  29.032  29.172  1.00  0.00    +0.000 C 
ATOM     36  C30 UNL A   1      40.335  28.713  30.606  1.00  0.00    +0.000 C 
ATOM     37  N5  UNL A   1      41.244  29.199  31.385  1.00  0.00    +0.000 N 
ATOM     38  C31 UNL A   1      41.079  28.555  32.608  1.00  0.00    +0.000 C 
ATOM     39  C32 UNL A   1      42.146  28.351  33.428  1.00  0.00    +0.000 C 
ATOM     51  C39 UNL A   1      43.256  29.185  33.031  1.00  0.00    +0.000 C 
ATOM     52  C40 UNL A   1      43.499  30.540  32.959  1.00  0.00    +0.000 C 
ATOM     53  C41 UNL A   1      44.326  30.713  31.808  1.00  0.00    +0.000 C 
ATOM     54  C42 UNL A   1      44.607  29.455  31.274  1.00  0.00    +0.000 C 
ATOM     55  N6  UNL A   1      44.205  28.582  32.246  1.00  0.00    +0.000 N 
ATOM     56  C43 UNL A   1      45.077  29.025  29.975  1.00  0.00    +0.000 C 
ATOM     68  C50 UNL A   1      44.995  27.751  29.490  1.00  0.00    +0.000 C 
ATOM     69  N7  UNL A   1      44.976  27.525  28.122  1.00  0.00    +0.000 N 
ATOM     70  C51 UNL A   1      44.277  26.432  27.980  1.00  0.00    +0.000 C 
ATOM     71  C52 UNL A   1      43.320  26.215  26.870  1.00  0.00    +0.000 C 
ATOM     83  C59 UNL A   1      42.314  27.106  27.051  1.00  0.00    +0.000 C 
ATOM     84  C60 UNL A   1      41.345  27.608  26.105  1.00  0.00    +0.000 C 
ATOM     85  C61 UNL A   1      40.568  28.509  26.738  1.00  0.00    +0.000 C 
ATOM     86  C62 UNL A   1      40.859  28.502  28.177  1.00  0.00    +0.000 C 
ATOM     87  N8  UNL A   1      41.993  27.727  28.278  1.00  0.00    +0.000 N 
ATOM     88  C63 UNL A   1      44.138  25.615  29.171  1.00  0.00    +0.000 C 
ATOM     89  C64 UNL A   1      44.567  26.488  30.085  1.00  0.00    +0.000 C 
ATOM     90  C65 UNL A   1      39.783  27.932  32.562  1.00  0.00    +0.000 C 
ATOM     91  C66 UNL A   1      39.336  27.886  31.304  1.00  0.00    +0.000 C 
ATOM    123  H30 UNL A   1      43.155  31.273  33.600  1.00  0.00    +0.000 H 
ATOM    124  H31 UNL A   1      44.659  31.616  31.434  1.00  0.00    +0.000 H 
ATOM    125  H32 UNL A   1      44.544  27.665  32.364  1.00  0.00    +0.000 H 
ATOM    126  H33 UNL A   1      41.262  27.325  25.116  1.00  0.00    +0.000 H 
ATOM    127  H34 UNL A   1      39.871  29.115  26.277  1.00  0.00    +0.000 H 
ATOM    128  H35 UNL A   1      42.515  27.618  29.106  1.00  0.00    +0.000 H 
ENDROOT
BRANCH   35   34
ATOM     33  C27 UNL A   1      38.660  31.059  29.398  1.00  0.00    +0.000 C 
ATOM     34  C28 UNL A   1      38.873  29.759  28.913  1.00  0.00    +0.000 C 
ATOM    133  H40 UNL A   1      37.983  28.078  28.006  1.00  0.00    +0.000 H 
ATOM    134  H41 UNL A   1      36.045  29.319  27.258  1.00  0.00    +0.000 H 
ATOM    121  H28 UNL A   1      37.207  32.576  29.645  1.00  0.00    +0.000 H 
ATOM    122  H29 UNL A   1      39.424  31.575  29.862  1.00  0.00    +0.000 H 
ATOM     92  C67 UNL A   1      37.861  29.073  28.254  1.00  0.00    +0.000 C 
ATOM     93  C68 UNL A   1      36.704  29.727  27.941  1.00  0.00    +0.000 C 
ATOM     31  C25 UNL A   1      36.417  30.946  28.545  1.00  0.00    +0.000 C 
ATOM     32  C26 UNL A   1      37.405  31.646  29.247  1.00  0.00    +0.000 C 
BRANCH   31   29
ATOM     29  C24 UNL A   1      35.029  31.431  28.455  1.00  0.00    +0.000 C 
ATOM     30  O2  UNL A   1      34.531  32.062  29.383  1.00  0.00    +0.000 O 
BRANCH   29   28
ATOM     28  N4  UNL A   1      34.307  31.162  27.305  1.00  0.00    +0.000 N 
ATOM    120  H27 UNL A   1      34.589  31.623  26.482  1.00  0.00    +0.000 H 
BRANCH   28   27
ATOM     27  C23 UNL A   1      33.160  30.254  27.194  1.00  0.00    +0.000 C 
ATOM    118  H25 UNL A   1      33.413  29.468  26.513  1.00  0.00    +0.000 H 
ATOM    119  H26 UNL A   1      32.951  29.883  28.175  1.00  0.00    +0.000 H 
BRANCH   27   26
ATOM     26  C22 UNL A   1      31.899  30.943  26.692  1.00  0.00    +0.000 C 
ATOM    116  H23 UNL A   1      31.203  30.996  27.502  1.00  0.00    +0.000 H 
ATOM    117  H24 UNL A   1      32.202  31.905  26.334  1.00  0.00    +0.000 H 
BRANCH   26   25
ATOM     25  C21 UNL A   1      31.211  30.239  25.515  1.00  0.00    +0.000 C 
ATOM    114  H21 UNL A   1      30.196  30.052  25.799  1.00  0.00    +0.000 H 
ATOM    115  H22 UNL A   1      31.331  30.903  24.685  1.00  0.00    +0.000 H 
BRANCH   25   24
ATOM    113  H20 UNL A   1      32.876  29.031  25.134  1.00  0.00    +0.000 H 
ATOM    112  H19 UNL A   1      31.470  28.722  24.054  1.00  0.00    +0.000 H 
ATOM     24  C20 UNL A   1      31.817  28.907  25.049  1.00  0.00    +0.000 C 
BRANCH   24   23
ATOM    111  H18 UNL A   1      31.035  28.037  26.797  1.00  0.00    +0.000 H 
ATOM    110  H17 UNL A   1      32.391  27.131  26.067  1.00  0.00    +0.000 H 
ATOM     23  C19 UNL A   1      31.484  27.673  25.896  1.00  0.00    +0.000 C 
BRANCH   23   22
ATOM    108  H15 UNL A   1      29.529  27.219  25.202  1.00  0.00    +0.000 H 
ATOM    109  H16 UNL A   1      30.845  26.454  24.297  1.00  0.00    +0.000 H 
ATOM     22  C18 UNL A   1      30.475  26.722  25.264  1.00  0.00    +0.000 C 
BRANCH   22   21
ATOM    107  H14 UNL A   1      29.949  25.548  26.942  1.00  0.00    +0.000 H 
ATOM     21  N3  UNL A   1      30.307  25.497  26.026  1.00  0.00    +0.000 N 
BRANCH   21    2
ATOM      1  O1  UNL A   1      30.418  23.211  26.098  1.00  0.00    +0.000 O 
ATOM      2  C1  UNL A   1      30.635  24.264  25.499  1.00  0.00    +0.000 C 
BRANCH    2    3
ATOM      3  C2  UNL A   1      31.365  24.270  24.172  1.00  0.00    +0.000 C 
ATOM     94  H1  UNL A   1      31.069  25.147  23.636  1.00  0.00    +0.000 H 
ATOM     95  H2  UNL A   1      31.097  23.357  23.682  1.00  0.00    +0.000 H 
BRANCH    3    4
ATOM      4  N1  UNL A   1      32.818  24.266  24.263  1.00  0.00    +0.000 N 
ATOM      5  C3  UNL A   1      33.581  25.405  24.234  1.00  0.00    +0.000 C 
ATOM      6  N2  UNL A   1      34.850  25.148  24.440  1.00  0.00    +0.000 N 
ATOM      7  C4  UNL A   1      34.917  23.789  24.611  1.00  0.00    +0.000 C 
ATOM     14  C11 UNL A   1      33.662  23.200  24.515  1.00  0.00    +0.000 C 
ATOM     96  H3  UNL A   1      33.201  26.350  24.071  1.00  0.00    +0.000 H 
BRANCH    7    8
ATOM     97  H4  UNL A   1      36.958  24.591  26.125  1.00  0.00    +0.000 H 
ATOM     98  H5  UNL A   1      38.947  23.335  26.726  1.00  0.00    +0.000 H 
ATOM     99  H6  UNL A   1      39.301  21.112  25.822  1.00  0.00    +0.000 H 
ATOM    100  H7  UNL A   1      37.679  20.149  24.296  1.00  0.00    +0.000 H 
ATOM    101  H8  UNL A   1      35.683  21.393  23.707  1.00  0.00    +0.000 H 
ATOM      8  C5  UNL A   1      36.149  23.079  24.892  1.00  0.00    +0.000 C 
ATOM      9  C6  UNL A   1      37.103  23.643  25.746  1.00  0.00    +0.000 C 
ATOM     10  C7  UNL A   1      38.250  22.923  26.087  1.00  0.00    +0.000 C 
ATOM     11  C8  UNL A   1      38.456  21.646  25.563  1.00  0.00    +0.000 C 
ATOM     12  C9  UNL A   1      37.521  21.090  24.691  1.00  0.00    +0.000 C 
ATOM     13  C10 UNL A   1      36.372  21.805  24.355  1.00  0.00    +0.000 C 
ENDBRANCH    7    8
BRANCH   14   15
ATOM    102  H9  UNL A   1      33.664  21.753  26.765  1.00  0.00    +0.000 H 
ATOM    103  H10 UNL A   1      33.176  19.391  27.028  1.00  0.00    +0.000 H 
ATOM    104  H11 UNL A   1      32.455  18.077  25.121  1.00  0.00    +0.000 H 
ATOM    105  H12 UNL A   1      32.290  19.110  22.933  1.00  0.00    +0.000 H 
ATOM    106  H13 UNL A   1      32.877  21.443  22.652  1.00  0.00    +0.000 H 
ATOM     15  C12 UNL A   1      33.273  21.802  24.690  1.00  0.00    +0.000 C 
ATOM     16  C13 UNL A   1      33.375  21.194  25.947  1.00  0.00    +0.000 C 
ATOM     17  C14 UNL A   1      33.089  19.834  26.100  1.00  0.00    +0.000 C 
ATOM     18  C15 UNL A   1      32.685  19.075  25.003  1.00  0.00    +0.000 C 
ATOM     19  C16 UNL A   1      32.593  19.669  23.747  1.00  0.00    +0.000 C 
ATOM     20  C17 UNL A   1      32.910  21.017  23.592  1.00  0.00    +0.000 C 
ENDBRANCH   14   15
ENDBRANCH    3    4
ENDBRANCH    2    3
ENDBRANCH   21    2
ENDBRANCH   22   21
ENDBRANCH   23   22
ENDBRANCH   24   23
ENDBRANCH   25   24
ENDBRANCH   26   25
ENDBRANCH   27   26
ENDBRANCH   28   27
ENDBRANCH   29   28
ENDBRANCH   31   29
ENDBRANCH   35   34
BRANCH   39   40
ATOM     40  C33 UNL A   1      42.364  27.105  34.267  1.00  0.00    +0.000 C 
ATOM     41  C34 UNL A   1      42.033  27.149  35.640  1.00  0.00    +0.000 C 
ATOM     42  F1  UNL A   1      41.288  28.149  36.131  1.00  0.00    +0.000 F 
ATOM     43  C35 UNL A   1      42.545  26.225  36.556  1.00  0.00    +0.000 C 
ATOM     44  F2  UNL A   1      42.314  26.389  37.866  1.00  0.00    +0.000 F 
ATOM     45  C36 UNL A   1      43.350  25.187  36.130  1.00  0.00    +0.000 C 
ATOM     46  F3  UNL A   1      43.896  24.339  37.013  1.00  0.00    +0.000 F 
ATOM     47  C37 UNL A   1      43.630  25.061  34.788  1.00  0.00    +0.000 C 
ATOM     48  F4  UNL A   1      44.426  24.071  34.357  1.00  0.00    +0.000 F 
ATOM     49  C38 UNL A   1      43.165  26.010  33.877  1.00  0.00    +0.000 C 
ATOM     50  F5  UNL A   1      43.628  25.863  32.633  1.00  0.00    +0.000 F 
ENDBRANCH   39   40
BRANCH   56   57
ATOM     65  F9  UNL A   1      43.837  32.330  26.656  1.00  0.00    +0.000 F 
ATOM     66  C49 UNL A   1      44.506  30.796  28.323  1.00  0.00    +0.000 C 
ATOM     67  F10 UNL A   1      43.213  30.531  28.570  1.00  0.00    +0.000 F 
ATOM     57  C44 UNL A   1      45.507  30.104  29.020  1.00  0.00    +0.000 C 
ATOM     58  C45 UNL A   1      46.842  30.390  28.684  1.00  0.00    +0.000 C 
ATOM     59  F6  UNL A   1      47.851  29.710  29.243  1.00  0.00    +0.000 F 
ATOM     60  C46 UNL A   1      47.155  31.352  27.724  1.00  0.00    +0.000 C 
ATOM     61  F7  UNL A   1      48.437  31.620  27.432  1.00  0.00    +0.000 F 
ATOM     62  C47 UNL A   1      46.144  32.014  27.046  1.00  0.00    +0.000 C 
ATOM     63  F8  UNL A   1      46.442  32.909  26.096  1.00  0.00    +0.000 F 
ATOM     64  C48 UNL A   1      44.820  31.727  27.339  1.00  0.00    +0.000 C 
ENDBRANCH   56   57
BRANCH   71   72
ATOM     72  C53 UNL A   1      43.366  25.013  26.007  1.00  0.00    +0.000 C 
ATOM     73  C54 UNL A   1      44.459  24.772  25.158  1.00  0.00    +0.000 C 
ATOM     74  F11 UNL A   1      45.360  25.740  24.929  1.00  0.00    +0.000 F 
ATOM     75  C55 UNL A   1      44.689  23.512  24.594  1.00  0.00    +0.000 C 
ATOM     76  F12 UNL A   1      45.781  23.302  23.846  1.00  0.00    +0.000 F 
ATOM     77  C56 UNL A   1      43.827  22.461  24.859  1.00  0.00    +0.000 C 
ATOM     78  F13 UNL A   1      44.084  21.236  24.378  1.00  0.00    +0.000 F 
ATOM     79  C57 UNL A   1      42.722  22.674  25.663  1.00  0.00    +0.000 C 
ATOM     80  F14 UNL A   1      41.902  21.654  25.957  1.00  0.00    +0.000 F 
ATOM     81  C58 UNL A   1      42.493  23.930  26.227  1.00  0.00    +0.000 C 
ATOM     82  F15 UNL A   1      41.460  24.045  27.073  1.00  0.00    +0.000 F 
ENDBRANCH   71   72
TORSDOF 18
ENDMDL
MODEL 5
REMARK VINA RESULT:     -10.7      3.160      8.942
ROOT
ATOM    129  H36 UNL A   1      44.412  25.140  29.212  1.00  0.00    +0.000 H 
ATOM    130  H37 UNL A   1      45.198  26.944  30.877  1.00  0.00    +0.000 H 
ATOM    131  H38 UNL A   1      39.994  27.875  33.566  1.00  0.00    +0.000 H 
ATOM    132  H39 UNL A   1      39.045  27.509  31.194  1.00  0.00    +0.000 H 
ATOM     35  C29 UNL A   1      40.338  29.180  29.237  1.00  0.00    +0.000 C 
ATOM     36  C30 UNL A   1      40.711  28.957  30.658  1.00  0.00    +0.000 C 
ATOM     37  N5  UNL A   1      41.634  29.560  31.330  1.00  0.00    +0.000 N 
ATOM     38  C31 UNL A   1      41.632  28.969  32.591  1.00  0.00    +0.000 C 
ATOM     39  C32 UNL A   1      42.779  28.902  33.321  1.00  0.00    +0.000 C 
ATOM     51  C39 UNL A   1      43.770  29.806  32.790  1.00  0.00    +0.000 C 
ATOM     52  C40 UNL A   1      43.882  31.172  32.637  1.00  0.00    +0.000 C 
ATOM     53  C41 UNL A   1      44.591  31.356  31.410  1.00  0.00    +0.000 C 
ATOM     54  C42 UNL A   1      44.938  30.100  30.910  1.00  0.00    +0.000 C 
ATOM     55  N6  UNL A   1      44.701  29.248  31.953  1.00  0.00    +0.000 N 
ATOM     56  C43 UNL A   1      45.334  29.645  29.596  1.00  0.00    +0.000 C 
ATOM     68  C50 UNL A   1      45.328  28.345  29.176  1.00  0.00    +0.000 C 
ATOM     69  N7  UNL A   1      45.214  28.048  27.827  1.00  0.00    +0.000 N 
ATOM     70  C51 UNL A   1      44.608  26.892  27.796  1.00  0.00    +0.000 C 
ATOM     71  C52 UNL A   1      43.585  26.535  26.787  1.00  0.00    +0.000 C 
ATOM     83  C59 UNL A   1      42.521  27.344  27.016  1.00  0.00    +0.000 C 
ATOM     84  C60 UNL A   1      41.434  27.710  26.139  1.00  0.00    +0.000 C 
ATOM     85  C61 UNL A   1      40.634  28.572  26.797  1.00  0.00    +0.000 C 
ATOM     86  C62 UNL A   1      41.045  28.665  28.203  1.00  0.00    +0.000 C 
ATOM     87  N8  UNL A   1      42.249  27.998  28.239  1.00  0.00    +0.000 N 
ATOM     88  C63 UNL A   1      44.645  26.129  29.030  1.00  0.00    +0.000 C 
ATOM     89  C64 UNL A   1      45.069  27.083  29.863  1.00  0.00    +0.000 C 
ATOM     90  C65 UNL A   1      40.399  28.234  32.688  1.00  0.00    +0.000 C 
ATOM     91  C66 UNL A   1      39.854  28.084  31.478  1.00  0.00    +0.000 C 
ATOM    123  H30 UNL A   1      43.529  31.905  33.272  1.00  0.00    +0.000 H 
ATOM    124  H31 UNL A   1      44.807  32.264  30.968  1.00  0.00    +0.000 H 
ATOM    125  H32 UNL A   1      45.131  28.372  32.080  1.00  0.00    +0.000 H 
ATOM    126  H33 UNL A   1      41.293  27.369  25.175  1.00  0.00    +0.000 H 
ATOM    127  H34 UNL A   1      39.848  29.090  26.374  1.00  0.00    +0.000 H 
ATOM    128  H35 UNL A   1      42.847  27.978  29.020  1.00  0.00    +0.000 H 
ENDROOT
BRANCH   35   34
ATOM     33  C27 UNL A   1      37.945  29.061  28.515  1.00  0.00    +0.000 C 
ATOM     34  C28 UNL A   1      39.022  29.782  29.056  1.00  0.00    +0.000 C 
ATOM    133  H40 UNL A   1      39.725  31.684  29.625  1.00  0.00    +0.000 H 
ATOM    134  H41 UNL A   1      37.511  32.659  29.662  1.00  0.00    +0.000 H 
ATOM    121  H28 UNL A   1      35.970  29.234  27.777  1.00  0.00    +0.000 H 
ATOM    122  H29 UNL A   1      38.033  28.049  28.332  1.00  0.00    +0.000 H 
ATOM     92  C67 UNL A   1      38.899  31.135  29.341  1.00  0.00    +0.000 C 
ATOM     93  C68 UNL A   1      37.674  31.731  29.238  1.00  0.00    +0.000 C 
ATOM     31  C25 UNL A   1      36.647  31.083  28.561  1.00  0.00    +0.000 C 
ATOM     32  C26 UNL A   1      36.755  29.728  28.227  1.00  0.00    +0.000 C 
BRANCH   31   29
ATOM     29  C24 UNL A   1      35.481  31.894  28.172  1.00  0.00    +0.000 C 
ATOM     30  O2  UNL A   1      35.633  33.043  27.765  1.00  0.00    +0.000 O 
BRANCH   29   28
ATOM     28  N4  UNL A   1      34.220  31.332  28.272  1.00  0.00    +0.000 N 
ATOM    120  H27 UNL A   1      33.937  31.027  29.164  1.00  0.00    +0.000 H 
BRANCH   28   27
ATOM     27  C23 UNL A   1      33.264  31.148  27.175  1.00  0.00    +0.000 C 
ATOM    118  H25 UNL A   1      32.325  31.571  27.467  1.00  0.00    +0.000 H 
ATOM    119  H26 UNL A   1      33.671  31.633  26.313  1.00  0.00    +0.000 H 
BRANCH   27   26
ATOM     26  C22 UNL A   1      33.045  29.687  26.812  1.00  0.00    +0.000 C 
ATOM    116  H23 UNL A   1      33.900  29.347  26.268  1.00  0.00    +0.000 H 
ATOM    117  H24 UNL A   1      32.897  29.165  27.735  1.00  0.00    +0.000 H 
BRANCH   26   25
ATOM     25  C21 UNL A   1      31.797  29.419  25.959  1.00  0.00    +0.000 C 
ATOM    114  H21 UNL A   1      30.943  29.525  26.594  1.00  0.00    +0.000 H 
ATOM    115  H22 UNL A   1      31.853  30.124  25.157  1.00  0.00    +0.000 H 
BRANCH   25   24
ATOM    113  H20 UNL A   1      31.241  28.231  24.329  1.00  0.00    +0.000 H 
ATOM    112  H19 UNL A   1      31.144  27.400  25.923  1.00  0.00    +0.000 H 
ATOM     24  C20 UNL A   1      31.702  28.046  25.277  1.00  0.00    +0.000 C 
BRANCH   24   23
ATOM    111  H18 UNL A   1      33.767  27.799  25.587  1.00  0.00    +0.000 H 
ATOM    110  H17 UNL A   1      33.231  27.485  23.912  1.00  0.00    +0.000 H 
ATOM     23  C19 UNL A   1      33.029  27.351  24.955  1.00  0.00    +0.000 C 
BRANCH   23   22
ATOM    108  H15 UNL A   1      32.333  25.649  26.018  1.00  0.00    +0.000 H 
ATOM    109  H16 UNL A   1      32.826  25.342  24.345  1.00  0.00    +0.000 H 
ATOM     22  C18 UNL A   1      33.054  25.857  25.254  1.00  0.00    +0.000 C 
BRANCH   22   21
ATOM    107  H14 UNL A   1      34.701  25.715  26.571  1.00  0.00    +0.000 H 
ATOM     21  N3  UNL A   1      34.355  25.397  25.705  1.00  0.00    +0.000 N 
BRANCH   21    2
ATOM      1  O1  UNL A   1      35.038  24.469  23.727  1.00  0.00    +0.000 O 
ATOM      2  C1  UNL A   1      35.119  24.527  24.953  1.00  0.00    +0.000 C 
BRANCH    2    3
ATOM      3  C2  UNL A   1      36.006  23.570  25.722  1.00  0.00    +0.000 C 
ATOM     94  H1  UNL A   1      35.772  23.666  26.761  1.00  0.00    +0.000 H 
ATOM     95  H2  UNL A   1      37.013  23.842  25.483  1.00  0.00    +0.000 H 
BRANCH    3    4
ATOM      4  N1  UNL A   1      35.871  22.168  25.356  1.00  0.00    +0.000 N 
ATOM      5  C3  UNL A   1      36.939  21.328  25.173  1.00  0.00    +0.000 C 
ATOM      6  N2  UNL A   1      36.558  20.092  24.956  1.00  0.00    +0.000 N 
ATOM      7  C4  UNL A   1      35.188  20.128  25.002  1.00  0.00    +0.000 C 
ATOM     14  C11 UNL A   1      34.719  21.410  25.259  1.00  0.00    +0.000 C 
ATOM     96  H3  UNL A   1      37.925  21.632  25.202  1.00  0.00    +0.000 H 
BRANCH    7    8
ATOM     97  H4  UNL A   1      35.639  18.004  23.456  1.00  0.00    +0.000 H 
ATOM     98  H5  UNL A   1      34.323  15.970  23.303  1.00  0.00    +0.000 H 
ATOM     99  H6  UNL A   1      32.266  15.754  24.572  1.00  0.00    +0.000 H 
ATOM    100  H7  UNL A   1      31.508  17.580  25.977  1.00  0.00    +0.000 H 
ATOM    101  H8  UNL A   1      32.829  19.607  26.146  1.00  0.00    +0.000 H 
ATOM      8  C5  UNL A   1      34.353  18.954  24.836  1.00  0.00    +0.000 C 
ATOM      9  C6  UNL A   1      34.769  17.911  24.002  1.00  0.00    +0.000 C 
ATOM     10  C7  UNL A   1      34.008  16.743  23.910  1.00  0.00    +0.000 C 
ATOM     11  C8  UNL A   1      32.823  16.621  24.636  1.00  0.00    +0.000 C 
ATOM     12  C9  UNL A   1      32.391  17.667  25.448  1.00  0.00    +0.000 C 
ATOM     13  C10 UNL A   1      33.152  18.832  25.546  1.00  0.00    +0.000 C 
ENDBRANCH    7    8
BRANCH   14   15
ATOM    102  H9  UNL A   1      32.863  21.885  23.392  1.00  0.00    +0.000 H 
ATOM    103  H10 UNL A   1      30.644  22.818  23.688  1.00  0.00    +0.000 H 
ATOM    104  H11 UNL A   1      29.816  23.310  25.914  1.00  0.00    +0.000 H 
ATOM    105  H12 UNL A   1      31.239  22.935  27.842  1.00  0.00    +0.000 H 
ATOM    106  H13 UNL A   1      33.491  22.101  27.537  1.00  0.00    +0.000 H 
ATOM     15  C12 UNL A   1      33.348  21.880  25.447  1.00  0.00    +0.000 C 
ATOM     16  C13 UNL A   1      32.523  22.109  24.340  1.00  0.00    +0.000 C 
ATOM     17  C14 UNL A   1      31.242  22.642  24.510  1.00  0.00    +0.000 C 
ATOM     18  C15 UNL A   1      30.769  22.936  25.788  1.00  0.00    +0.000 C 
ATOM     19  C16 UNL A   1      31.587  22.723  26.894  1.00  0.00    +0.000 C 
ATOM     20  C17 UNL A   1      32.876  22.222  26.718  1.00  0.00    +0.000 C 
ENDBRANCH   14   15
ENDBRANCH    3    4
ENDBRANCH    2    3
ENDBRANCH   21    2
ENDBRANCH   22   21
ENDBRANCH   23   22
ENDBRANCH   24   23
ENDBRANCH   25   24
ENDBRANCH   26   25
ENDBRANCH   27   26
ENDBRANCH   28   27
ENDBRANCH   29   28
ENDBRANCH   31   29
ENDBRANCH   35   34
BRANCH   39   40
ATOM     40  C33 UNL A   1      43.179  27.725  34.193  1.00  0.00    +0.000 C 
ATOM     41  C34 UNL A   1      43.440  26.483  33.573  1.00  0.00    +0.000 C 
ATOM     42  F1  UNL A   1      43.613  26.405  32.245  1.00  0.00    +0.000 F 
ATOM     43  C35 UNL A   1      43.428  25.281  34.286  1.00  0.00    +0.000 C 
ATOM     44  F2  UNL A   1      43.544  24.117  33.631  1.00  0.00    +0.000 F 
ATOM     45  C36 UNL A   1      43.221  25.277  35.651  1.00  0.00    +0.000 C 
ATOM     46  F3  UNL A   1      43.143  24.123  36.328  1.00  0.00    +0.000 F 
ATOM     47  C37 UNL A   1      43.045  26.475  36.307  1.00  0.00    +0.000 C 
ATOM     48  F4  UNL A   1      42.823  26.491  37.630  1.00  0.00    +0.000 F 
ATOM     49  C38 UNL A   1      43.004  27.672  35.593  1.00  0.00    +0.000 C 
ATOM     50  F5  UNL A   1      42.675  28.744  36.319  1.00  0.00    +0.000 F 
ENDBRANCH   39   40
BRANCH   56   57
ATOM     65  F9  UNL A   1      43.518  32.690  26.292  1.00  0.00    +0.000 F 
ATOM     66  C49 UNL A   1      44.466  31.290  27.942  1.00  0.00    +0.000 C 
ATOM     67  F10 UNL A   1      43.229  30.943  28.330  1.00  0.00    +0.000 F 
ATOM     57  C44 UNL A   1      45.582  30.707  28.558  1.00  0.00    +0.000 C 
ATOM     58  C45 UNL A   1      46.851  31.073  28.076  1.00  0.00    +0.000 C 
ATOM     59  F6  UNL A   1      47.960  30.495  28.554  1.00  0.00    +0.000 F 
ATOM     60  C46 UNL A   1      46.991  32.008  27.051  1.00  0.00    +0.000 C 
ATOM     61  F7  UNL A   1      48.213  32.355  26.618  1.00  0.00    +0.000 F 
ATOM     62  C47 UNL A   1      45.869  32.561  26.455  1.00  0.00    +0.000 C 
ATOM     63  F8  UNL A   1      46.001  33.430  25.444  1.00  0.00    +0.000 F 
ATOM     64  C48 UNL A   1      44.607  32.194  26.894  1.00  0.00    +0.000 C 
ENDBRANCH   56   57
BRANCH   71   72
ATOM     72  C53 UNL A   1      43.667  25.298  25.978  1.00  0.00    +0.000 C 
ATOM     73  C54 UNL A   1      44.795  25.023  25.187  1.00  0.00    +0.000 C 
ATOM     74  F11 UNL A   1      45.705  25.982  24.957  1.00  0.00    +0.000 F 
ATOM     75  C55 UNL A   1      45.048  23.741  24.687  1.00  0.00    +0.000 C 
ATOM     76  F12 UNL A   1      46.171  23.501  23.995  1.00  0.00    +0.000 F 
ATOM     77  C56 UNL A   1      44.175  22.701  24.958  1.00  0.00    +0.000 C 
ATOM     78  F13 UNL A   1      44.452  21.457  24.540  1.00  0.00    +0.000 F 
ATOM     79  C57 UNL A   1      43.036  22.946  25.704  1.00  0.00    +0.000 C 
ATOM     80  F14 UNL A   1      42.204  21.938  26.005  1.00  0.00    +0.000 F 
ATOM     81  C58 UNL A   1      42.784  24.224  26.205  1.00  0.00    +0.000 C 
ATOM     82  F15 UNL A   1      41.716  24.373  27.001  1.00  0.00    +0.000 F 
ENDBRANCH   71   72
TORSDOF 18
ENDMDL
MODEL 6
REMARK VINA RESULT:     -10.4      1.397      2.168
ROOT
ATOM    129  H36 UNL A   1      39.431  33.453  29.680  1.00  0.00    +0.000 H 
ATOM    130  H37 UNL A   1      41.867  33.359  30.516  1.00  0.00    +0.000 H 
ATOM    131  H38 UNL A   1      44.197  30.498  25.871  1.00  0.00    +0.000 H 
ATOM    132  H39 UNL A   1      41.941  29.243  25.897  1.00  0.00    +0.000 H 
ATOM     35  C29 UNL A   1      41.325  28.169  28.496  1.00  0.00    +0.000 C 
ATOM     36  C30 UNL A   1      42.419  29.098  28.112  1.00  0.00    +0.000 C 
ATOM     37  N5  UNL A   1      43.384  29.524  28.858  1.00  0.00    +0.000 N 
ATOM     38  C31 UNL A   1      44.112  30.407  28.065  1.00  0.00    +0.000 C 
ATOM     39  C32 UNL A   1      44.778  31.451  28.632  1.00  0.00    +0.000 C 
ATOM     51  C39 UNL A   1      44.909  31.254  30.056  1.00  0.00    +0.000 C 
ATOM     52  C40 UNL A   1      45.535  30.338  30.875  1.00  0.00    +0.000 C 
ATOM     53  C41 UNL A   1      44.669  30.187  32.001  1.00  0.00    +0.000 C 
ATOM     54  C42 UNL A   1      43.595  31.066  31.852  1.00  0.00    +0.000 C 
ATOM     55  N6  UNL A   1      43.981  31.895  30.836  1.00  0.00    +0.000 N 
ATOM     56  C43 UNL A   1      42.282  31.119  32.456  1.00  0.00    +0.000 C 
ATOM     68  C50 UNL A   1      41.223  31.837  31.979  1.00  0.00    +0.000 C 
ATOM     69  N7  UNL A   1      39.926  31.451  32.279  1.00  0.00    +0.000 N 
ATOM     70  C51 UNL A   1      39.221  31.844  31.254  1.00  0.00    +0.000 C 
ATOM     71  C52 UNL A   1      38.101  31.059  30.686  1.00  0.00    +0.000 C 
ATOM     83  C59 UNL A   1      38.647  29.931  30.167  1.00  0.00    +0.000 C 
ATOM     84  C60 UNL A   1      38.027  28.666  29.852  1.00  0.00    +0.000 C 
ATOM     85  C61 UNL A   1      38.981  27.832  29.394  1.00  0.00    +0.000 C 
ATOM     86  C62 UNL A   1      40.239  28.565  29.201  1.00  0.00    +0.000 C 
ATOM     87  N8  UNL A   1      40.002  29.785  29.792  1.00  0.00    +0.000 N 
ATOM     88  C63 UNL A   1      39.837  32.858  30.418  1.00  0.00    +0.000 C 
ATOM     89  C64 UNL A   1      41.087  32.795  30.885  1.00  0.00    +0.000 C 
ATOM     90  C65 UNL A   1      43.693  30.171  26.710  1.00  0.00    +0.000 C 
ATOM     91  C66 UNL A   1      42.557  29.468  26.693  1.00  0.00    +0.000 C 
ATOM    123  H30 UNL A   1      46.436  29.862  30.709  1.00  0.00    +0.000 H 
ATOM    124  H31 UNL A   1      44.813  29.537  32.790  1.00  0.00    +0.000 H 
ATOM    125  H32 UNL A   1      43.644  32.808  30.688  1.00  0.00    +0.000 H 
ATOM    126  H33 UNL A   1      37.026  28.440  29.957  1.00  0.00    +0.000 H 
ATOM    127  H34 UNL A   1      38.847  26.826  29.207  1.00  0.00    +0.000 H 
ATOM    128  H35 UNL A   1      40.692  30.473  29.937  1.00  0.00    +0.000 H 
ENDROOT
BRANCH   35   34
ATOM     33  C27 UNL A   1      40.621  26.561  26.711  1.00  0.00    +0.000 C 
ATOM     34  C28 UNL A   1      41.395  26.866  27.842  1.00  0.00    +0.000 C 
ATOM    133  H40 UNL A   1      42.654  26.092  29.344  1.00  0.00    +0.000 H 
ATOM    134  H41 UNL A   1      43.073  24.034  28.143  1.00  0.00    +0.000 H 
ATOM    121  H28 UNL A   1      40.014  24.994  25.427  1.00  0.00    +0.000 H 
ATOM    122  H29 UNL A   1      40.061  27.294  26.249  1.00  0.00    +0.000 H 
ATOM     92  C67 UNL A   1      42.182  25.896  28.448  1.00  0.00    +0.000 C 
ATOM     93  C68 UNL A   1      42.323  24.678  27.844  1.00  0.00    +0.000 C 
ATOM     31  C25 UNL A   1      41.451  24.309  26.826  1.00  0.00    +0.000 C 
ATOM     32  C26 UNL A   1      40.618  25.256  26.220  1.00  0.00    +0.000 C 
BRANCH   31   29
ATOM     29  C24 UNL A   1      41.410  22.883  26.460  1.00  0.00    +0.000 C 
ATOM     30  O2  UNL A   1      42.453  22.256  26.292  1.00  0.00    +0.000 O 
BRANCH   29   28
ATOM     28  N4  UNL A   1      40.176  22.271  26.315  1.00  0.00    +0.000 N 
ATOM    120  H27 UNL A   1      39.441  22.827  25.969  1.00  0.00    +0.000 H 
BRANCH   28   27
ATOM     27  C23 UNL A   1      39.860  20.874  26.628  1.00  0.00    +0.000 C 
ATOM    118  H25 UNL A   1      40.702  20.438  27.124  1.00  0.00    +0.000 H 
ATOM    119  H26 UNL A   1      38.987  20.875  27.246  1.00  0.00    +0.000 H 
BRANCH   27   26
ATOM     26  C22 UNL A   1      39.541  20.042  25.394  1.00  0.00    +0.000 C 
ATOM    116  H23 UNL A   1      39.923  20.556  24.538  1.00  0.00    +0.000 H 
ATOM    117  H24 UNL A   1      39.995  19.085  25.549  1.00  0.00    +0.000 H 
BRANCH   26   25
ATOM     25  C21 UNL A   1      38.046  19.782  25.168  1.00  0.00    +0.000 C 
ATOM    114  H21 UNL A   1      37.960  19.018  24.423  1.00  0.00    +0.000 H 
ATOM    115  H22 UNL A   1      37.660  19.518  26.130  1.00  0.00    +0.000 H 
BRANCH   25   24
ATOM    113  H20 UNL A   1      36.906  20.749  23.704  1.00  0.00    +0.000 H 
ATOM    112  H19 UNL A   1      37.787  21.858  24.814  1.00  0.00    +0.000 H 
ATOM     24  C20 UNL A   1      37.193  20.974  24.709  1.00  0.00    +0.000 C 
BRANCH   24   23
ATOM    111  H18 UNL A   1      35.919  22.203  25.845  1.00  0.00    +0.000 H 
ATOM    110  H17 UNL A   1      35.804  20.464  26.235  1.00  0.00    +0.000 H 
ATOM     23  C19 UNL A   1      35.879  21.204  25.465  1.00  0.00    +0.000 C 
BRANCH   23   22
ATOM    108  H15 UNL A   1      34.724  21.807  23.788  1.00  0.00    +0.000 H 
ATOM    109  H16 UNL A   1      34.538  20.110  24.259  1.00  0.00    +0.000 H 
ATOM     22  C18 UNL A   1      34.626  21.120  24.603  1.00  0.00    +0.000 C 
BRANCH   22   21
ATOM    107  H14 UNL A   1      33.257  21.009  26.210  1.00  0.00    +0.000 H 
ATOM     21  N3  UNL A   1      33.416  21.441  25.339  1.00  0.00    +0.000 N 
BRANCH   21    2
ATOM      1  O1  UNL A   1      31.274  22.147  24.950  1.00  0.00    +0.000 O 
ATOM      2  C1  UNL A   1      32.485  22.336  24.851  1.00  0.00    +0.000 C 
BRANCH    2    3
ATOM      3  C2  UNL A   1      33.029  23.532  24.099  1.00  0.00    +0.000 C 
ATOM     94  H1  UNL A   1      32.267  23.876  23.430  1.00  0.00    +0.000 H 
ATOM     95  H2  UNL A   1      33.913  23.193  23.601  1.00  0.00    +0.000 H 
BRANCH    3    4
ATOM      4  N1  UNL A   1      33.440  24.655  24.929  1.00  0.00    +0.000 N 
ATOM      5  C3  UNL A   1      34.690  24.769  25.481  1.00  0.00    +0.000 C 
ATOM      6  N2  UNL A   1      34.850  25.917  26.095  1.00  0.00    +0.000 N 
ATOM      7  C4  UNL A   1      33.658  26.577  25.934  1.00  0.00    +0.000 C 
ATOM     14  C11 UNL A   1      32.751  25.821  25.201  1.00  0.00    +0.000 C 
ATOM     96  H3  UNL A   1      35.417  24.040  25.420  1.00  0.00    +0.000 H 
BRANCH    7    8
ATOM     97  H4  UNL A   1      35.382  28.599  26.135  1.00  0.00    +0.000 H 
ATOM     98  H5  UNL A   1      34.925  30.878  26.834  1.00  0.00    +0.000 H 
ATOM     99  H6  UNL A   1      32.699  31.501  27.572  1.00  0.00    +0.000 H 
ATOM    100  H7  UNL A   1      30.931  29.842  27.634  1.00  0.00    +0.000 H 
ATOM    101  H8  UNL A   1      31.379  27.568  26.920  1.00  0.00    +0.000 H 
ATOM      8  C5  UNL A   1      33.409  27.911  26.444  1.00  0.00    +0.000 C 
ATOM      9  C6  UNL A   1      34.433  28.864  26.440  1.00  0.00    +0.000 C 
ATOM     10  C7  UNL A   1      34.172  30.174  26.848  1.00  0.00    +0.000 C 
ATOM     11  C8  UNL A   1      32.893  30.531  27.277  1.00  0.00    +0.000 C 
ATOM     12  C9  UNL A   1      31.875  29.579  27.307  1.00  0.00    +0.000 C 
ATOM     13  C10 UNL A   1      32.133  28.272  26.894  1.00  0.00    +0.000 C 
ENDBRANCH    7    8
BRANCH   14   15
ATOM    102  H9  UNL A   1      30.415  25.059  26.260  1.00  0.00    +0.000 H 
ATOM    103  H10 UNL A   1      28.179  25.490  25.425  1.00  0.00    +0.000 H 
ATOM    104  H11 UNL A   1      27.859  26.883  23.465  1.00  0.00    +0.000 H 
ATOM    105  H12 UNL A   1      29.782  27.787  22.297  1.00  0.00    +0.000 H 
ATOM    106  H13 UNL A   1      32.018  27.271  23.071  1.00  0.00    +0.000 H 
ATOM     15  C12 UNL A   1      31.402  26.163  24.754  1.00  0.00    +0.000 C 
ATOM     16  C13 UNL A   1      30.285  25.637  25.416  1.00  0.00    +0.000 C 
ATOM     17  C14 UNL A   1      28.996  25.890  24.937  1.00  0.00    +0.000 C 
ATOM     18  C15 UNL A   1      28.811  26.681  23.805  1.00  0.00    +0.000 C 
ATOM     19  C16 UNL A   1      29.916  27.197  23.134  1.00  0.00    +0.000 C 
ATOM     20  C17 UNL A   1      31.202  26.917  23.594  1.00  0.00    +0.000 C 
ENDBRANCH   14   15
ENDBRANCH    3    4
ENDBRANCH    2    3
ENDBRANCH   21    2
ENDBRANCH   22   21
ENDBRANCH   23   22
ENDBRANCH   24   23
ENDBRANCH   25   24
ENDBRANCH   26   25
ENDBRANCH   27   26
ENDBRANCH   28   27
ENDBRANCH   29   28
ENDBRANCH   31   29
ENDBRANCH   35   34
BRANCH   39   40
ATOM     40  C33 UNL A   1      44.896  32.835  28.019  1.00  0.00    +0.000 C 
ATOM     41  C34 UNL A   1      46.175  33.300  27.641  1.00  0.00    +0.000 C 
ATOM     42  F1  UNL A   1      47.211  32.454  27.555  1.00  0.00    +0.000 F 
ATOM     43  C35 UNL A   1      46.442  34.657  27.444  1.00  0.00    +0.000 C 
ATOM     44  F2  UNL A   1      47.700  35.063  27.223  1.00  0.00    +0.000 F 
ATOM     45  C36 UNL A   1      45.433  35.594  27.551  1.00  0.00    +0.000 C 
ATOM     46  F3  UNL A   1      45.698  36.902  27.428  1.00  0.00    +0.000 F 
ATOM     47  C37 UNL A   1      44.153  35.173  27.837  1.00  0.00    +0.000 C 
ATOM     48  F4  UNL A   1      43.163  36.069  27.964  1.00  0.00    +0.000 F 
ATOM     49  C38 UNL A   1      43.892  33.826  28.086  1.00  0.00    +0.000 C 
ATOM     50  F5  UNL A   1      42.649  33.565  28.501  1.00  0.00    +0.000 F 
ENDBRANCH   39   40
BRANCH   56   57
ATOM     65  F9  UNL A   1      42.415  30.191  37.211  1.00  0.00    +0.000 F 
ATOM     66  C49 UNL A   1      42.245  30.602  34.891  1.00  0.00    +0.000 C 
ATOM     67  F10 UNL A   1      42.625  31.871  35.108  1.00  0.00    +0.000 F 
ATOM     57  C44 UNL A   1      42.016  30.156  33.582  1.00  0.00    +0.000 C 
ATOM     58  C45 UNL A   1      41.668  28.804  33.412  1.00  0.00    +0.000 C 
ATOM     59  F6  UNL A   1      41.517  28.282  32.189  1.00  0.00    +0.000 F 
ATOM     60  C46 UNL A   1      41.520  27.954  34.508  1.00  0.00    +0.000 C 
ATOM     61  F7  UNL A   1      41.171  26.671  34.324  1.00  0.00    +0.000 F 
ATOM     62  C47 UNL A   1      41.762  28.422  35.790  1.00  0.00    +0.000 C 
ATOM     63  F8  UNL A   1      41.659  27.597  36.840  1.00  0.00    +0.000 F 
ATOM     64  C48 UNL A   1      42.135  29.743  35.979  1.00  0.00    +0.000 C 
ENDBRANCH   56   57
BRANCH   71   72
ATOM     72  C53 UNL A   1      36.758  31.641  30.462  1.00  0.00    +0.000 C 
ATOM     73  C54 UNL A   1      35.932  31.993  31.543  1.00  0.00    +0.000 C 
ATOM     74  F11 UNL A   1      36.238  31.585  32.784  1.00  0.00    +0.000 F 
ATOM     75  C55 UNL A   1      34.826  32.833  31.379  1.00  0.00    +0.000 C 
ATOM     76  F12 UNL A   1      34.102  33.203  32.445  1.00  0.00    +0.000 F 
ATOM     77  C56 UNL A   1      34.511  33.339  30.129  1.00  0.00    +0.000 C 
ATOM     78  F13 UNL A   1      33.494  34.200  29.982  1.00  0.00    +0.000 F 
ATOM     79  C57 UNL A   1      35.283  32.982  29.038  1.00  0.00    +0.000 C 
ATOM     80  F14 UNL A   1      35.011  33.496  27.830  1.00  0.00    +0.000 F 
ATOM     81  C58 UNL A   1      36.389  32.145  29.200  1.00  0.00    +0.000 C 
ATOM     82  F15 UNL A   1      37.151  31.918  28.122  1.00  0.00    +0.000 F 
ENDBRANCH   71   72
TORSDOF 18
ENDMDL
MODEL 7
REMARK VINA RESULT:     -10.3      5.050     11.631
ROOT
ATOM    129  H36 UNL A   1      43.884  24.981  29.431  1.00  0.00    +0.000 H 
ATOM    130  H37 UNL A   1      44.660  26.825  31.056  1.00  0.00    +0.000 H 
ATOM    131  H38 UNL A   1      39.396  27.973  33.538  1.00  0.00    +0.000 H 
ATOM    132  H39 UNL A   1      38.516  27.543  31.149  1.00  0.00    +0.000 H 
ATOM     35  C29 UNL A   1      39.910  29.111  29.178  1.00  0.00    +0.000 C 
ATOM     36  C30 UNL A   1      40.232  28.932  30.618  1.00  0.00    +0.000 C 
ATOM     37  N5  UNL A   1      41.148  29.538  31.298  1.00  0.00    +0.000 N 
ATOM     38  C31 UNL A   1      41.090  28.993  32.578  1.00  0.00    +0.000 C 
ATOM     39  C32 UNL A   1      42.212  28.926  33.348  1.00  0.00    +0.000 C 
ATOM     51  C39 UNL A   1      43.241  29.787  32.818  1.00  0.00    +0.000 C 
ATOM     52  C40 UNL A   1      43.391  31.144  32.620  1.00  0.00    +0.000 C 
ATOM     53  C41 UNL A   1      44.143  31.266  31.411  1.00  0.00    +0.000 C 
ATOM     54  C42 UNL A   1      44.476  29.986  30.969  1.00  0.00    +0.000 C 
ATOM     55  N6  UNL A   1      44.184  29.178  32.032  1.00  0.00    +0.000 N 
ATOM     56  C43 UNL A   1      44.902  29.474  29.685  1.00  0.00    +0.000 C 
ATOM     68  C50 UNL A   1      44.878  28.160  29.312  1.00  0.00    +0.000 C 
ATOM     69  N7  UNL A   1      44.800  27.816  27.971  1.00  0.00    +0.000 N 
ATOM     70  C51 UNL A   1      44.168  26.675  27.962  1.00  0.00    +0.000 C 
ATOM     71  C52 UNL A   1      43.169  26.305  26.932  1.00  0.00    +0.000 C 
ATOM     83  C59 UNL A   1      42.118  27.146  27.097  1.00  0.00    +0.000 C 
ATOM     84  C60 UNL A   1      41.069  27.505  26.172  1.00  0.00    +0.000 C 
ATOM     85  C61 UNL A   1      40.270  28.408  26.772  1.00  0.00    +0.000 C 
ATOM     86  C62 UNL A   1      40.637  28.543  28.188  1.00  0.00    +0.000 C 
ATOM     87  N8  UNL A   1      41.823  27.850  28.286  1.00  0.00    +0.000 N 
ATOM     88  C63 UNL A   1      44.146  25.957  29.222  1.00  0.00    +0.000 C 
ATOM     89  C64 UNL A   1      44.566  26.930  30.034  1.00  0.00    +0.000 C 
ATOM     90  C65 UNL A   1      39.838  28.291  32.661  1.00  0.00    +0.000 C 
ATOM     91  C66 UNL A   1      39.328  28.109  31.440  1.00  0.00    +0.000 C 
ATOM    123  H30 UNL A   1      43.035  31.907  33.217  1.00  0.00    +0.000 H 
ATOM    124  H31 UNL A   1      44.395  32.152  30.945  1.00  0.00    +0.000 H 
ATOM    125  H32 UNL A   1      44.588  28.296  32.205  1.00  0.00    +0.000 H 
ATOM    126  H33 UNL A   1      40.951  27.133  25.217  1.00  0.00    +0.000 H 
ATOM    127  H34 UNL A   1      39.511  28.929  26.305  1.00  0.00    +0.000 H 
ATOM    128  H35 UNL A   1      42.395  27.845  29.087  1.00  0.00    +0.000 H 
ENDROOT
BRANCH   35   34
ATOM     33  C27 UNL A   1      37.521  29.007  28.440  1.00  0.00    +0.000 C 
ATOM     34  C28 UNL A   1      38.616  29.736  28.933  1.00  0.00    +0.000 C 
ATOM    133  H40 UNL A   1      39.373  31.657  29.351  1.00  0.00    +0.000 H 
ATOM    134  H41 UNL A   1      37.191  32.699  29.282  1.00  0.00    +0.000 H 
ATOM    121  H28 UNL A   1      35.561  29.179  27.667  1.00  0.00    +0.000 H 
ATOM    122  H29 UNL A   1      37.579  27.981  28.342  1.00  0.00    +0.000 H 
ATOM     92  C67 UNL A   1      38.533  31.112  29.103  1.00  0.00    +0.000 C 
ATOM     93  C68 UNL A   1      37.328  31.735  28.938  1.00  0.00    +0.000 C 
ATOM     31  C25 UNL A   1      36.288  31.065  28.304  1.00  0.00    +0.000 C 
ATOM     32  C26 UNL A   1      36.356  29.685  28.084  1.00  0.00    +0.000 C 
BRANCH   31   29
ATOM     29  C24 UNL A   1      35.152  31.877  27.836  1.00  0.00    +0.000 C 
ATOM     30  O2  UNL A   1      34.100  31.338  27.502  1.00  0.00    +0.000 O 
BRANCH   29   28
ATOM     28  N4  UNL A   1      35.298  33.253  27.785  1.00  0.00    +0.000 N 
ATOM    120  H27 UNL A   1      36.217  33.602  27.732  1.00  0.00    +0.000 H 
BRANCH   28   27
ATOM     27  C23 UNL A   1      34.214  34.240  27.803  1.00  0.00    +0.000 C 
ATOM    118  H25 UNL A   1      34.305  34.861  26.935  1.00  0.00    +0.000 H 
ATOM    119  H26 UNL A   1      33.291  33.700  27.813  1.00  0.00    +0.000 H 
BRANCH   27   26
ATOM     26  C22 UNL A   1      34.234  35.128  29.038  1.00  0.00    +0.000 C 
ATOM    116  H23 UNL A   1      35.198  35.585  29.104  1.00  0.00    +0.000 H 
ATOM    117  H24 UNL A   1      33.440  35.835  28.915  1.00  0.00    +0.000 H 
BRANCH   26   25
ATOM     25  C21 UNL A   1      33.961  34.394  30.358  1.00  0.00    +0.000 C 
ATOM    114  H21 UNL A   1      33.379  35.046  30.976  1.00  0.00    +0.000 H 
ATOM    115  H22 UNL A   1      33.471  33.486  30.075  1.00  0.00    +0.000 H 
BRANCH   25   24
ATOM    113  H20 UNL A   1      35.218  34.607  32.017  1.00  0.00    +0.000 H 
ATOM    112  H19 UNL A   1      36.040  34.007  30.533  1.00  0.00    +0.000 H 
ATOM     24  C20 UNL A   1      35.184  33.950  31.174  1.00  0.00    +0.000 C 
BRANCH   24   23
ATOM    111  H18 UNL A   1      35.633  31.899  31.061  1.00  0.00    +0.000 H 
ATOM    110  H17 UNL A   1      34.108  32.273  31.912  1.00  0.00    +0.000 H 
ATOM     23  C19 UNL A   1      35.135  32.536  31.762  1.00  0.00    +0.000 C 
BRANCH   23   22
ATOM    108  H15 UNL A   1      36.375  33.286  33.314  1.00  0.00    +0.000 H 
ATOM    109  H16 UNL A   1      35.135  32.134  33.832  1.00  0.00    +0.000 H 
ATOM     22  C18 UNL A   1      35.866  32.373  33.089  1.00  0.00    +0.000 C 
BRANCH   22   21
ATOM    107  H14 UNL A   1      36.526  30.373  32.900  1.00  0.00    +0.000 H 
ATOM     21  N3  UNL A   1      36.837  31.293  33.065  1.00  0.00    +0.000 N 
BRANCH   21    2
ATOM      1  O1  UNL A   1      38.907  32.008  32.397  1.00  0.00    +0.000 O 
ATOM      2  C1  UNL A   1      38.184  31.523  33.266  1.00  0.00    +0.000 C 
BRANCH    2    3
ATOM      3  C2  UNL A   1      38.756  31.062  34.590  1.00  0.00    +0.000 C 
ATOM     94  H1  UNL A   1      39.812  30.936  34.467  1.00  0.00    +0.000 H 
ATOM     95  H2  UNL A   1      38.243  30.156  34.835  1.00  0.00    +0.000 H 
BRANCH    3    4
ATOM      4  N1  UNL A   1      38.537  31.964  35.710  1.00  0.00    +0.000 N 
ATOM      5  C3  UNL A   1      37.558  31.777  36.652  1.00  0.00    +0.000 C 
ATOM      6  N2  UNL A   1      37.632  32.662  37.617  1.00  0.00    +0.000 N 
ATOM      7  C4  UNL A   1      38.702  33.457  37.292  1.00  0.00    +0.000 C 
ATOM     14  C11 UNL A   1      39.301  33.046  36.107  1.00  0.00    +0.000 C 
ATOM     96  H3  UNL A   1      36.849  31.029  36.607  1.00  0.00    +0.000 H 
BRANCH    7    8
ATOM     97  H4  UNL A   1      39.585  35.840  36.490  1.00  0.00    +0.000 H 
ATOM     98  H5  UNL A   1      40.190  37.743  37.871  1.00  0.00    +0.000 H 
ATOM     99  H6  UNL A   1      40.136  37.556  40.289  1.00  0.00    +0.000 H 
ATOM    100  H7  UNL A   1      39.501  35.460  41.332  1.00  0.00    +0.000 H 
ATOM    101  H8  UNL A   1      38.879  33.563  39.957  1.00  0.00    +0.000 H 
ATOM      8  C5  UNL A   1      39.156  34.560  38.115  1.00  0.00    +0.000 C 
ATOM      9  C6  UNL A   1      39.553  35.761  37.518  1.00  0.00    +0.000 C 
ATOM     10  C7  UNL A   1      39.907  36.854  38.312  1.00  0.00    +0.000 C 
ATOM     11  C8  UNL A   1      39.881  36.746  39.703  1.00  0.00    +0.000 C 
ATOM     12  C9  UNL A   1      39.510  35.543  40.303  1.00  0.00    +0.000 C 
ATOM     13  C10 UNL A   1      39.151  34.453  39.511  1.00  0.00    +0.000 C 
ENDBRANCH    7    8
BRANCH   14   15
ATOM    102  H9  UNL A   1      41.869  32.578  36.692  1.00  0.00    +0.000 H 
ATOM    103  H10 UNL A   1      43.840  33.569  35.685  1.00  0.00    +0.000 H 
ATOM    104  H11 UNL A   1      43.615  35.093  33.812  1.00  0.00    +0.000 H 
ATOM    105  H12 UNL A   1      41.410  35.684  32.992  1.00  0.00    +0.000 H 
ATOM    106  H13 UNL A   1      39.439  34.775  34.066  1.00  0.00    +0.000 H 
ATOM     15  C12 UNL A   1      40.490  33.567  35.436  1.00  0.00    +0.000 C 
ATOM     16  C13 UNL A   1      41.767  33.240  35.908  1.00  0.00    +0.000 C 
ATOM     17  C14 UNL A   1      42.903  33.807  35.324  1.00  0.00    +0.000 C 
ATOM     18  C15 UNL A   1      42.775  34.692  34.255  1.00  0.00    +0.000 C 
ATOM     19  C16 UNL A   1      41.509  35.032  33.786  1.00  0.00    +0.000 C 
ATOM     20  C17 UNL A   1      40.376  34.490  34.392  1.00  0.00    +0.000 C 
ENDBRANCH   14   15
ENDBRANCH    3    4
ENDBRANCH    2    3
ENDBRANCH   21    2
ENDBRANCH   22   21
ENDBRANCH   23   22
ENDBRANCH   24   23
ENDBRANCH   25   24
ENDBRANCH   26   25
ENDBRANCH   27   26
ENDBRANCH   28   27
ENDBRANCH   29   28
ENDBRANCH   31   29
ENDBRANCH   35   34
BRANCH   39   40
ATOM     40  C33 UNL A   1      42.555  27.772  34.274  1.00  0.00    +0.000 C 
ATOM     41  C34 UNL A   1      43.070  26.584  33.710  1.00  0.00    +0.000 C 
ATOM     42  F1  UNL A   1      43.513  26.564  32.445  1.00  0.00    +0.000 F 
ATOM     43  C35 UNL A   1      43.046  25.366  34.396  1.00  0.00    +0.000 C 
ATOM     44  F2  UNL A   1      43.418  24.241  33.770  1.00  0.00    +0.000 F 
ATOM     45  C36 UNL A   1      42.571  25.300  35.692  1.00  0.00    +0.000 C 
ATOM     46  F3  UNL A   1      42.485  24.125  36.329  1.00  0.00    +0.000 F 
ATOM     47  C37 UNL A   1      42.136  26.453  36.307  1.00  0.00    +0.000 C 
ATOM     48  F4  UNL A   1      41.653  26.406  37.557  1.00  0.00    +0.000 F 
ATOM     49  C38 UNL A   1      42.109  27.660  35.609  1.00  0.00    +0.000 C 
ATOM     50  F5  UNL A   1      41.526  28.669  36.261  1.00  0.00    +0.000 F 
ENDBRANCH   39   40
BRANCH   56   57
ATOM     65  F9  UNL A   1      48.091  32.535  27.699  1.00  0.00    +0.000 F 
ATOM     66  C49 UNL A   1      46.512  31.006  28.564  1.00  0.00    +0.000 C 
ATOM     67  F10 UNL A   1      47.452  30.540  29.402  1.00  0.00    +0.000 F 
ATOM     57  C44 UNL A   1      45.209  30.491  28.619  1.00  0.00    +0.000 C 
ATOM     58  C45 UNL A   1      44.256  31.052  27.750  1.00  0.00    +0.000 C 
ATOM     59  F6  UNL A   1      42.973  30.674  27.803  1.00  0.00    +0.000 F 
ATOM     60  C46 UNL A   1      44.606  32.052  26.844  1.00  0.00    +0.000 C 
ATOM     61  F7  UNL A   1      43.684  32.562  26.013  1.00  0.00    +0.000 F 
ATOM     62  C47 UNL A   1      45.901  32.547  26.819  1.00  0.00    +0.000 C 
ATOM     63  F8  UNL A   1      46.229  33.536  25.977  1.00  0.00    +0.000 F 
ATOM     64  C48 UNL A   1      46.850  32.030  27.686  1.00  0.00    +0.000 C 
ENDBRANCH   56   57
BRANCH   71   72
ATOM     72  C53 UNL A   1      43.247  25.037  26.171  1.00  0.00    +0.000 C 
ATOM     73  C54 UNL A   1      44.249  24.832  25.207  1.00  0.00    +0.000 C 
ATOM     74  F11 UNL A   1      44.997  25.862  24.784  1.00  0.00    +0.000 F 
ATOM     75  C55 UNL A   1      44.551  23.555  24.722  1.00  0.00    +0.000 C 
ATOM     76  F12 UNL A   1      45.560  23.389  23.855  1.00  0.00    +0.000 F 
ATOM     77  C56 UNL A   1      43.855  22.450  25.182  1.00  0.00    +0.000 C 
ATOM     78  F13 UNL A   1      44.190  21.218  24.772  1.00  0.00    +0.000 F 
ATOM     79  C57 UNL A   1      42.839  22.622  26.105  1.00  0.00    +0.000 C 
ATOM     80  F14 UNL A   1      42.184  21.556  26.586  1.00  0.00    +0.000 F 
ATOM     81  C58 UNL A   1      42.538  23.896  26.591  1.00  0.00    +0.000 C 
ATOM     82  F15 UNL A   1      41.610  23.983  27.554  1.00  0.00    +0.000 F 
ENDBRANCH   71   72
TORSDOF 18
ENDMDL
MODEL 8
REMARK VINA RESULT:     -10.2     26.181     32.098
ROOT
ATOM    129  H36 UNL A   1      26.335  15.098   5.419  1.00  0.00    +0.000 H 
ATOM    130  H37 UNL A   1      24.411  13.728   6.450  1.00  0.00    +0.000 H 
ATOM    131  H38 UNL A   1      20.195  15.204   2.546  1.00  0.00    +0.000 H 
ATOM    132  H39 UNL A   1      21.372  17.500   2.601  1.00  0.00    +0.000 H 
ATOM     35  C29 UNL A   1      21.707  18.487   5.285  1.00  0.00    +0.000 C 
ATOM     36  C30 UNL A   1      21.252  17.144   4.840  1.00  0.00    +0.000 C 
ATOM     37  N5  UNL A   1      20.809  16.182   5.579  1.00  0.00    +0.000 N 
ATOM     38  C31 UNL A   1      20.564  15.121   4.711  1.00  0.00    +0.000 C 
ATOM     39  C32 UNL A   1      20.675  13.836   5.148  1.00  0.00    +0.000 C 
ATOM     51  C39 UNL A   1      20.687  13.791   6.591  1.00  0.00    +0.000 C 
ATOM     52  C40 UNL A   1      19.802  14.115   7.597  1.00  0.00    +0.000 C 
ATOM     53  C41 UNL A   1      20.611  14.621   8.660  1.00  0.00    +0.000 C 
ATOM     54  C42 UNL A   1      21.950  14.516   8.282  1.00  0.00    +0.000 C 
ATOM     55  N6  UNL A   1      21.923  13.713   7.176  1.00  0.00    +0.000 N 
ATOM     56  C43 UNL A   1      23.156  15.154   8.763  1.00  0.00    +0.000 C 
ATOM     68  C50 UNL A   1      24.344  15.204   8.090  1.00  0.00    +0.000 C 
ATOM     69  N7  UNL A   1      25.249  16.222   8.346  1.00  0.00    +0.000 N 
ATOM     70  C51 UNL A   1      25.881  16.391   7.217  1.00  0.00    +0.000 C 
ATOM     71  C52 UNL A   1      26.284  17.719   6.700  1.00  0.00    +0.000 C 
ATOM     83  C59 UNL A   1      25.137  18.387   6.421  1.00  0.00    +0.000 C 
ATOM     84  C60 UNL A   1      24.908  19.805   6.272  1.00  0.00    +0.000 C 
ATOM     85  C61 UNL A   1      23.596  19.997   6.037  1.00  0.00    +0.000 C 
ATOM     86  C62 UNL A   1      22.929  18.706   5.825  1.00  0.00    +0.000 C 
ATOM     87  N8  UNL A   1      23.884  17.781   6.185  1.00  0.00    +0.000 N 
ATOM     88  C63 UNL A   1      25.793  15.290   6.276  1.00  0.00    +0.000 C 
ATOM     89  C64 UNL A   1      24.804  14.596   6.845  1.00  0.00    +0.000 C 
ATOM     90  C65 UNL A   1      20.565  15.677   3.385  1.00  0.00    +0.000 C 
ATOM     91  C66 UNL A   1      21.114  16.895   3.395  1.00  0.00    +0.000 C 
ATOM    123  H30 UNL A   1      18.774  14.015   7.585  1.00  0.00    +0.000 H 
ATOM    124  H31 UNL A   1      20.264  15.000   9.555  1.00  0.00    +0.000 H 
ATOM    125  H32 UNL A   1      22.675  13.166   6.852  1.00  0.00    +0.000 H 
ATOM    126  H33 UNL A   1      25.626  20.544   6.334  1.00  0.00    +0.000 H 
ATOM    127  H34 UNL A   1      23.127  20.916   6.010  1.00  0.00    +0.000 H 
ATOM    128  H35 UNL A   1      23.713  16.815   6.267  1.00  0.00    +0.000 H 
ENDROOT
BRANCH   35   34
ATOM     33  C27 UNL A   1      19.500  19.667   5.291  1.00  0.00    +0.000 C 
ATOM     34  C28 UNL A   1      20.835  19.578   4.865  1.00  0.00    +0.000 C 
ATOM    133  H40 UNL A   1      22.287  20.335   3.539  1.00  0.00    +0.000 H 
ATOM    134  H41 UNL A   1      21.021  22.339   3.056  1.00  0.00    +0.000 H 
ATOM    121  H28 UNL A   1      17.675  20.694   4.994  1.00  0.00    +0.000 H 
ATOM    122  H29 UNL A   1      19.135  19.014   6.002  1.00  0.00    +0.000 H 
ATOM     92  C67 UNL A   1      21.346  20.476   3.937  1.00  0.00    +0.000 C 
ATOM     93  C68 UNL A   1      20.586  21.545   3.554  1.00  0.00    +0.000 C 
ATOM     31  C25 UNL A   1      19.225  21.560   3.837  1.00  0.00    +0.000 C 
ATOM     32  C26 UNL A   1      18.674  20.645   4.740  1.00  0.00    +0.000 C 
BRANCH   31   29
ATOM     29  C24 UNL A   1      18.398  22.537   3.109  1.00  0.00    +0.000 C 
ATOM     30  O2  UNL A   1      18.082  22.333   1.940  1.00  0.00    +0.000 O 
BRANCH   29   28
ATOM     28  N4  UNL A   1      17.985  23.681   3.772  1.00  0.00    +0.000 N 
ATOM    120  H27 UNL A   1      18.412  24.527   3.509  1.00  0.00    +0.000 H 
BRANCH   28   27
ATOM     27  C23 UNL A   1      16.972  23.750   4.830  1.00  0.00    +0.000 C 
ATOM    118  H25 UNL A   1      17.446  23.548   5.768  1.00  0.00    +0.000 H 
ATOM    119  H26 UNL A   1      16.547  24.731   4.800  1.00  0.00    +0.000 H 
BRANCH   27   26
ATOM     26  C22 UNL A   1      15.836  22.757   4.637  1.00  0.00    +0.000 C 
ATOM    116  H23 UNL A   1      15.529  22.798   3.614  1.00  0.00    +0.000 H 
ATOM    117  H24 UNL A   1      16.220  21.800   4.924  1.00  0.00    +0.000 H 
BRANCH   26   25
ATOM     25  C21 UNL A   1      14.605  23.012   5.517  1.00  0.00    +0.000 C 
ATOM    114  H21 UNL A   1      14.091  23.860   5.115  1.00  0.00    +0.000 H 
ATOM    115  H22 UNL A   1      14.052  22.097   5.495  1.00  0.00    +0.000 H 
BRANCH   25   24
ATOM    113  H20 UNL A   1      13.899  23.238   7.474  1.00  0.00    +0.000 H 
ATOM    112  H19 UNL A   1      15.342  24.240   7.084  1.00  0.00    +0.000 H 
ATOM     24  C20 UNL A   1      14.860  23.287   7.007  1.00  0.00    +0.000 C 
BRANCH   24   23
ATOM    111  H18 UNL A   1      16.617  22.781   8.045  1.00  0.00    +0.000 H 
ATOM    110  H17 UNL A   1      15.916  21.444   7.090  1.00  0.00    +0.000 H 
ATOM     23  C19 UNL A   1      15.727  22.265   7.751  1.00  0.00    +0.000 C 
BRANCH   23   22
ATOM    108  H15 UNL A   1      14.349  22.393   9.362  1.00  0.00    +0.000 H 
ATOM    109  H16 UNL A   1      14.698  20.751   8.798  1.00  0.00    +0.000 H 
ATOM     22  C18 UNL A   1      15.105  21.713   9.027  1.00  0.00    +0.000 C 
BRANCH   22   21
ATOM    107  H14 UNL A   1      16.174  22.243  10.773  1.00  0.00    +0.000 H 
ATOM     21  N3  UNL A   1      16.076  21.537  10.093  1.00  0.00    +0.000 N 
BRANCH   21    2
ATOM      1  O1  UNL A   1      18.056  20.453  10.476  1.00  0.00    +0.000 O 
ATOM      2  C1  UNL A   1      16.864  20.406  10.178  1.00  0.00    +0.000 C 
BRANCH    2    3
ATOM      3  C2  UNL A   1      16.207  19.096   9.793  1.00  0.00    +0.000 C 
ATOM     94  H1  UNL A   1      15.186  19.299   9.546  1.00  0.00    +0.000 H 
ATOM     95  H2  UNL A   1      16.323  18.448  10.637  1.00  0.00    +0.000 H 
BRANCH    3    4
ATOM      4  N1  UNL A   1      16.815  18.403   8.667  1.00  0.00    +0.000 N 
ATOM      5  C3  UNL A   1      18.114  17.964   8.661  1.00  0.00    +0.000 C 
ATOM      6  N2  UNL A   1      18.392  17.276   7.580  1.00  0.00    +0.000 N 
ATOM      7  C4  UNL A   1      17.228  17.266   6.854  1.00  0.00    +0.000 C 
ATOM     14  C11 UNL A   1      16.213  17.955   7.506  1.00  0.00    +0.000 C 
ATOM     96  H3  UNL A   1      18.790  18.151   9.417  1.00  0.00    +0.000 H 
BRANCH    7    8
ATOM     97  H4  UNL A   1      17.221  18.338   4.414  1.00  0.00    +0.000 H 
ATOM     98  H5  UNL A   1      17.148  17.181   2.281  1.00  0.00    +0.000 H 
ATOM     99  H6  UNL A   1      16.946  14.764   2.216  1.00  0.00    +0.000 H 
ATOM    100  H7  UNL A   1      16.792  13.501   4.281  1.00  0.00    +0.000 H 
ATOM    101  H8  UNL A   1      16.882  14.652   6.413  1.00  0.00    +0.000 H 
ATOM      8  C5  UNL A   1      17.087  16.584   5.582  1.00  0.00    +0.000 C 
ATOM      9  C6  UNL A   1      17.143  17.310   4.388  1.00  0.00    +0.000 C 
ATOM     10  C7  UNL A   1      17.095  16.645   3.161  1.00  0.00    +0.000 C 
ATOM     11  C8  UNL A   1      16.974  15.255   3.123  1.00  0.00    +0.000 C 
ATOM     12  C9  UNL A   1      16.892  14.529   4.310  1.00  0.00    +0.000 C 
ATOM     13  C10 UNL A   1      16.946  15.192   5.536  1.00  0.00    +0.000 C 
ENDBRANCH    7    8
BRANCH   14   15
ATOM    102  H9  UNL A   1      15.161  19.872   5.965  1.00  0.00    +0.000 H 
ATOM    103  H10 UNL A   1      12.823  20.272   5.459  1.00  0.00    +0.000 H 
ATOM    104  H11 UNL A   1      11.122  18.747   6.275  1.00  0.00    +0.000 H 
ATOM    105  H12 UNL A   1      11.754  16.860   7.660  1.00  0.00    +0.000 H 
ATOM    106  H13 UNL A   1      14.078  16.521   8.251  1.00  0.00    +0.000 H 
ATOM     15  C12 UNL A   1      14.816  18.138   7.121  1.00  0.00    +0.000 C 
ATOM     16  C13 UNL A   1      14.439  19.231   6.330  1.00  0.00    +0.000 C 
ATOM     17  C14 UNL A   1      13.092  19.458   6.034  1.00  0.00    +0.000 C 
ATOM     18  C15 UNL A   1      12.113  18.589   6.511  1.00  0.00    +0.000 C 
ATOM     19  C16 UNL A   1      12.476  17.508   7.308  1.00  0.00    +0.000 C 
ATOM     20  C17 UNL A   1      13.818  17.302   7.629  1.00  0.00    +0.000 C 
ENDBRANCH   14   15
ENDBRANCH    3    4
ENDBRANCH    2    3
ENDBRANCH   21    2
ENDBRANCH   22   21
ENDBRANCH   23   22
ENDBRANCH   24   23
ENDBRANCH   25   24
ENDBRANCH   26   25
ENDBRANCH   27   26
ENDBRANCH   28   27
ENDBRANCH   29   28
ENDBRANCH   31   29
ENDBRANCH   35   34
BRANCH   39   40
ATOM     40  C33 UNL A   1      21.235  12.690   4.324  1.00  0.00    +0.000 C 
ATOM     41  C34 UNL A   1      20.511  11.478   4.272  1.00  0.00    +0.000 C 
ATOM     42  F1  UNL A   1      19.239  11.424   4.692  1.00  0.00    +0.000 F 
ATOM     43  C35 UNL A   1      21.106  10.274   3.886  1.00  0.00    +0.000 C 
ATOM     44  F2  UNL A   1      20.417   9.129   3.985  1.00  0.00    +0.000 F 
ATOM     45  C36 UNL A   1      22.425  10.243   3.475  1.00  0.00    +0.000 C 
ATOM     46  F3  UNL A   1      23.018   9.082   3.168  1.00  0.00    +0.000 F 
ATOM     47  C37 UNL A   1      23.143  11.418   3.433  1.00  0.00    +0.000 C 
ATOM     48  F4  UNL A   1      24.430  11.406   3.056  1.00  0.00    +0.000 F 
ATOM     49  C38 UNL A   1      22.569  12.613   3.867  1.00  0.00    +0.000 C 
ATOM     50  F5  UNL A   1      23.410  13.649   3.922  1.00  0.00    +0.000 F 
ENDBRANCH   39   40
BRANCH   56   57
ATOM     65  F9  UNL A   1      22.055  19.424  10.771  1.00  0.00    +0.000 F 
ATOM     66  C49 UNL A   1      22.530  17.292   9.871  1.00  0.00    +0.000 C 
ATOM     67  F10 UNL A   1      22.122  17.731   8.670  1.00  0.00    +0.000 F 
ATOM     57  C44 UNL A   1      23.030  15.990  10.008  1.00  0.00    +0.000 C 
ATOM     58  C45 UNL A   1      23.486  15.603  11.280  1.00  0.00    +0.000 C 
ATOM     59  F6  UNL A   1      24.056  14.407  11.471  1.00  0.00    +0.000 F 
ATOM     60  C46 UNL A   1      23.408  16.471  12.370  1.00  0.00    +0.000 C 
ATOM     61  F7  UNL A   1      23.835  16.075  13.579  1.00  0.00    +0.000 F 
ATOM     62  C47 UNL A   1      22.917  17.756  12.202  1.00  0.00    +0.000 C 
ATOM     63  F8  UNL A   1      22.877  18.604  13.238  1.00  0.00    +0.000 F 
ATOM     64  C48 UNL A   1      22.488  18.169  10.950  1.00  0.00    +0.000 C 
ENDBRANCH   56   57
BRANCH   71   72
ATOM     72  C53 UNL A   1      27.671  18.017   6.276  1.00  0.00    +0.000 C 
ATOM     73  C54 UNL A   1      28.714  18.099   7.215  1.00  0.00    +0.000 C 
ATOM     74  F11 UNL A   1      28.435  18.153   8.526  1.00  0.00    +0.000 F 
ATOM     75  C55 UNL A   1      30.057  18.045   6.828  1.00  0.00    +0.000 C 
ATOM     76  F12 UNL A   1      31.022  18.056   7.758  1.00  0.00    +0.000 F 
ATOM     77  C56 UNL A   1      30.395  17.916   5.492  1.00  0.00    +0.000 C 
ATOM     78  F13 UNL A   1      31.679  17.794   5.125  1.00  0.00    +0.000 F 
ATOM     79  C57 UNL A   1      29.393  17.869   4.539  1.00  0.00    +0.000 C 
ATOM     80  F14 UNL A   1      29.707  17.706   3.246  1.00  0.00    +0.000 F 
ATOM     81  C58 UNL A   1      28.052  17.921   4.924  1.00  0.00    +0.000 C 
ATOM     82  F15 UNL A   1      27.130  17.772   3.962  1.00  0.00    +0.000 F 
ENDBRANCH   71   72
TORSDOF 18
ENDMDL
MODEL 9
REMARK VINA RESULT:     -10.2      5.091     11.782
ROOT
ATOM    129  H36 UNL A   1      44.148  24.959  29.358  1.00  0.00    +0.000 H 
ATOM    130  H37 UNL A   1      44.944  26.805  30.970  1.00  0.00    +0.000 H 
ATOM    131  H38 UNL A   1      39.725  27.908  33.565  1.00  0.00    +0.000 H 
ATOM    132  H39 UNL A   1      38.798  27.477  31.195  1.00  0.00    +0.000 H 
ATOM     35  C29 UNL A   1      40.139  29.060  29.198  1.00  0.00    +0.000 C 
ATOM     36  C30 UNL A   1      40.492  28.879  30.630  1.00  0.00    +0.000 C 
ATOM     37  N5  UNL A   1      41.418  29.491  31.293  1.00  0.00    +0.000 N 
ATOM     38  C31 UNL A   1      41.391  28.943  32.572  1.00  0.00    +0.000 C 
ATOM     39  C32 UNL A   1      42.529  28.882  33.318  1.00  0.00    +0.000 C 
ATOM     51  C39 UNL A   1      43.541  29.753  32.769  1.00  0.00    +0.000 C 
ATOM     52  C40 UNL A   1      43.676  31.111  32.571  1.00  0.00    +0.000 C 
ATOM     53  C41 UNL A   1      44.401  31.242  31.347  1.00  0.00    +0.000 C 
ATOM     54  C42 UNL A   1      44.734  29.965  30.894  1.00  0.00    +0.000 C 
ATOM     55  N6  UNL A   1      44.472  29.152  31.962  1.00  0.00    +0.000 N 
ATOM     56  C43 UNL A   1      45.138  29.459  29.600  1.00  0.00    +0.000 C 
ATOM     68  C50 UNL A   1      45.116  28.146  29.225  1.00  0.00    +0.000 C 
ATOM     69  N7  UNL A   1      45.012  27.804  27.886  1.00  0.00    +0.000 N 
ATOM     70  C51 UNL A   1      44.389  26.658  27.887  1.00  0.00    +0.000 C 
ATOM     71  C52 UNL A   1      43.371  26.283  26.877  1.00  0.00    +0.000 C 
ATOM     83  C59 UNL A   1      42.318  27.116  27.067  1.00  0.00    +0.000 C 
ATOM     84  C60 UNL A   1      41.246  27.469  26.165  1.00  0.00    +0.000 C 
ATOM     85  C61 UNL A   1      40.453  28.364  26.784  1.00  0.00    +0.000 C 
ATOM     86  C62 UNL A   1      40.849  28.499  28.191  1.00  0.00    +0.000 C 
ATOM     87  N8  UNL A   1      42.042  27.815  28.263  1.00  0.00    +0.000 N 
ATOM     88  C63 UNL A   1      44.399  25.937  29.146  1.00  0.00    +0.000 C 
ATOM     89  C64 UNL A   1      44.828  26.912  29.951  1.00  0.00    +0.000 C 
ATOM     90  C65 UNL A   1      40.146  28.231  32.680  1.00  0.00    +0.000 C 
ATOM     91  C66 UNL A   1      39.612  28.049  31.469  1.00  0.00    +0.000 C 
ATOM    123  H30 UNL A   1      43.327  31.870  33.177  1.00  0.00    +0.000 H 
ATOM    124  H31 UNL A   1      44.637  32.130  30.878  1.00  0.00    +0.000 H 
ATOM    125  H32 UNL A   1      44.886  28.274  32.124  1.00  0.00    +0.000 H 
ATOM    126  H33 UNL A   1      41.111  27.098  25.211  1.00  0.00    +0.000 H 
ATOM    127  H34 UNL A   1      39.680  28.881  26.334  1.00  0.00    +0.000 H 
ATOM    128  H35 UNL A   1      42.631  27.812  29.052  1.00  0.00    +0.000 H 
ENDROOT
BRANCH   35   34
ATOM     33  C27 UNL A   1      37.731  28.934  28.530  1.00  0.00    +0.000 C 
ATOM     34  C28 UNL A   1      38.835  29.676  28.981  1.00  0.00    +0.000 C 
ATOM    133  H40 UNL A   1      39.595  31.605  29.352  1.00  0.00    +0.000 H 
ATOM    134  H41 UNL A   1      37.407  32.636  29.331  1.00  0.00    +0.000 H 
ATOM    121  H28 UNL A   1      35.748  29.087  27.811  1.00  0.00    +0.000 H 
ATOM    122  H29 UNL A   1      37.791  27.908  28.444  1.00  0.00    +0.000 H 
ATOM     92  C67 UNL A   1      38.751  31.053  29.136  1.00  0.00    +0.000 C 
ATOM     93  C68 UNL A   1      37.539  31.668  28.996  1.00  0.00    +0.000 C 
ATOM     31  C25 UNL A   1      36.484  30.985  28.402  1.00  0.00    +0.000 C 
ATOM     32  C26 UNL A   1      36.552  29.602  28.199  1.00  0.00    +0.000 C 
BRANCH   31   29
ATOM     29  C24 UNL A   1      35.331  31.785  27.955  1.00  0.00    +0.000 C 
ATOM     30  O2  UNL A   1      34.384  31.246  27.389  1.00  0.00    +0.000 O 
BRANCH   29   28
ATOM     28  N4  UNL A   1      35.340  33.149  28.192  1.00  0.00    +0.000 N 
ATOM    120  H27 UNL A   1      36.135  33.648  27.895  1.00  0.00    +0.000 H 
BRANCH   28   27
ATOM     27  C23 UNL A   1      34.278  33.923  28.843  1.00  0.00    +0.000 C 
ATOM    118  H25 UNL A   1      34.370  34.946  28.543  1.00  0.00    +0.000 H 
ATOM    119  H26 UNL A   1      33.344  33.499  28.541  1.00  0.00    +0.000 H 
BRANCH   27   26
ATOM     26  C22 UNL A   1      34.336  33.857  30.362  1.00  0.00    +0.000 C 
ATOM    116  H23 UNL A   1      33.598  34.524  30.753  1.00  0.00    +0.000 H 
ATOM    117  H24 UNL A   1      34.164  32.834  30.627  1.00  0.00    +0.000 H 
BRANCH   26   25
ATOM     25  C21 UNL A   1      35.694  34.238  30.968  1.00  0.00    +0.000 C 
ATOM    114  H21 UNL A   1      36.426  34.168  30.190  1.00  0.00    +0.000 H 
ATOM    115  H22 UNL A   1      35.555  35.221  31.367  1.00  0.00    +0.000 H 
BRANCH   25   24
ATOM    113  H20 UNL A   1      36.680  32.549  31.712  1.00  0.00    +0.000 H 
ATOM    112  H19 UNL A   1      35.342  33.150  32.755  1.00  0.00    +0.000 H 
ATOM     24  C20 UNL A   1      36.191  33.394  32.151  1.00  0.00    +0.000 C 
BRANCH   24   23
ATOM    111  H18 UNL A   1      36.747  34.851  33.560  1.00  0.00    +0.000 H 
ATOM    110  H17 UNL A   1      38.058  34.364  32.449  1.00  0.00    +0.000 H 
ATOM     23  C19 UNL A   1      37.239  34.044  33.060  1.00  0.00    +0.000 C 
BRANCH   23   22
ATOM    108  H15 UNL A   1      36.967  32.689  34.673  1.00  0.00    +0.000 H 
ATOM    109  H16 UNL A   1      38.399  32.393  33.675  1.00  0.00    +0.000 H 
ATOM     22  C18 UNL A   1      37.789  33.132  34.150  1.00  0.00    +0.000 C 
BRANCH   22   21
ATOM    107  H14 UNL A   1      38.305  33.939  36.035  1.00  0.00    +0.000 H 
ATOM     21  N3  UNL A   1      38.620  33.840  35.107  1.00  0.00    +0.000 N 
BRANCH   21    2
ATOM      1  O1  UNL A   1      40.059  35.588  34.762  1.00  0.00    +0.000 O 
ATOM      2  C1  UNL A   1      39.842  34.378  34.750  1.00  0.00    +0.000 C 
BRANCH    2    3
ATOM      3  C2  UNL A   1      40.887  33.403  34.249  1.00  0.00    +0.000 C 
ATOM     94  H1  UNL A   1      40.516  32.412  34.405  1.00  0.00    +0.000 H 
ATOM     95  H2  UNL A   1      41.780  33.617  34.798  1.00  0.00    +0.000 H 
BRANCH    3    4
ATOM      4  N1  UNL A   1      41.238  33.536  32.843  1.00  0.00    +0.000 N 
ATOM      5  C3  UNL A   1      40.515  32.969  31.825  1.00  0.00    +0.000 C 
ATOM      6  N2  UNL A   1      40.969  33.322  30.647  1.00  0.00    +0.000 N 
ATOM      7  C4  UNL A   1      42.028  34.154  30.907  1.00  0.00    +0.000 C 
ATOM     14  C11 UNL A   1      42.224  34.320  32.272  1.00  0.00    +0.000 C 
ATOM     96  H3  UNL A   1      39.710  32.340  31.970  1.00  0.00    +0.000 H 
BRANCH    7    8
ATOM     97  H4  UNL A   1      41.195  35.904  29.077  1.00  0.00    +0.000 H 
ATOM     98  H5  UNL A   1      42.537  37.104  27.449  1.00  0.00    +0.000 H 
ATOM     99  H6  UNL A   1      44.919  36.673  27.281  1.00  0.00    +0.000 H 
ATOM    100  H7  UNL A   1      45.960  35.025  28.725  1.00  0.00    +0.000 H 
ATOM    101  H8  UNL A   1      44.626  33.838  30.365  1.00  0.00    +0.000 H 
ATOM      8  C5  UNL A   1      42.810  34.797  29.870  1.00  0.00    +0.000 C 
ATOM      9  C6  UNL A   1      42.209  35.726  29.013  1.00  0.00    +0.000 C 
ATOM     10  C7  UNL A   1      42.980  36.411  28.072  1.00  0.00    +0.000 C 
ATOM     11  C8  UNL A   1      44.349  36.160  27.972  1.00  0.00    +0.000 C 
ATOM     12  C9  UNL A   1      44.949  35.218  28.806  1.00  0.00    +0.000 C 
ATOM     13  C10 UNL A   1      44.181  34.537  29.751  1.00  0.00    +0.000 C 
ENDBRANCH    7    8
BRANCH   14   15
ATOM    102  H9  UNL A   1      42.128  36.960  32.692  1.00  0.00    +0.000 H 
ATOM    103  H10 UNL A   1      43.808  38.375  33.721  1.00  0.00    +0.000 H 
ATOM    104  H11 UNL A   1      45.822  37.395  34.651  1.00  0.00    +0.000 H 
ATOM    105  H12 UNL A   1      46.191  35.004  34.487  1.00  0.00    +0.000 H 
ATOM    106  H13 UNL A   1      44.561  33.606  33.368  1.00  0.00    +0.000 H 
ATOM     15  C12 UNL A   1      43.190  35.158  32.979  1.00  0.00    +0.000 C 
ATOM     16  C13 UNL A   1      42.992  36.540  33.070  1.00  0.00    +0.000 C 
ATOM     17  C14 UNL A   1      43.957  37.356  33.668  1.00  0.00    +0.000 C 
ATOM     18  C15 UNL A   1      45.120  36.795  34.192  1.00  0.00    +0.000 C 
ATOM     19  C16 UNL A   1      45.332  35.423  34.096  1.00  0.00    +0.000 C 
ATOM     20  C17 UNL A   1      44.382  34.617  33.470  1.00  0.00    +0.000 C 
ENDBRANCH   14   15
ENDBRANCH    3    4
ENDBRANCH    2    3
ENDBRANCH   21    2
ENDBRANCH   22   21
ENDBRANCH   23   22
ENDBRANCH   24   23
ENDBRANCH   25   24
ENDBRANCH   26   25
ENDBRANCH   27   26
ENDBRANCH   28   27
ENDBRANCH   29   28
ENDBRANCH   31   29
ENDBRANCH   35   34
BRANCH   39   40
ATOM     40  C33 UNL A   1      42.901  27.730  34.234  1.00  0.00    +0.000 C 
ATOM     41  C34 UNL A   1      43.277  26.499  33.652  1.00  0.00    +0.000 C 
ATOM     42  F1  UNL A   1      43.577  26.424  32.347  1.00  0.00    +0.000 F 
ATOM     43  C35 UNL A   1      43.255  25.301  34.371  1.00  0.00    +0.000 C 
ATOM     44  F2  UNL A   1      43.486  24.141  33.740  1.00  0.00    +0.000 F 
ATOM     45  C36 UNL A   1      42.920  25.293  35.711  1.00  0.00    +0.000 C 
ATOM     46  F3  UNL A   1      42.833  24.139  36.387  1.00  0.00    +0.000 F 
ATOM     47  C37 UNL A   1      42.626  26.484  36.337  1.00  0.00    +0.000 C 
ATOM     48  F4  UNL A   1      42.281  26.495  37.633  1.00  0.00    +0.000 F 
ATOM     49  C38 UNL A   1      42.597  27.675  35.612  1.00  0.00    +0.000 C 
ATOM     50  F5  UNL A   1      42.151  28.733  36.294  1.00  0.00    +0.000 F 
ENDBRANCH   39   40
BRANCH   56   57
ATOM     65  F9  UNL A   1      48.344  32.313  27.352  1.00  0.00    +0.000 F 
ATOM     66  C49 UNL A   1      46.743  30.890  28.347  1.00  0.00    +0.000 C 
ATOM     67  F10 UNL A   1      47.724  30.324  29.068  1.00  0.00    +0.000 F 
ATOM     57  C44 UNL A   1      45.415  30.481  28.531  1.00  0.00    +0.000 C 
ATOM     58  C45 UNL A   1      44.426  31.143  27.783  1.00  0.00    +0.000 C 
ATOM     59  F6  UNL A   1      43.128  30.869  27.965  1.00  0.00    +0.000 F 
ATOM     60  C46 UNL A   1      44.761  32.140  26.866  1.00  0.00    +0.000 C 
ATOM     61  F7  UNL A   1      43.801  32.748  26.151  1.00  0.00    +0.000 F 
ATOM     62  C47 UNL A   1      46.082  32.529  26.713  1.00  0.00    +0.000 C 
ATOM     63  F8  UNL A   1      46.401  33.514  25.863  1.00  0.00    +0.000 F 
ATOM     64  C48 UNL A   1      47.071  31.910  27.462  1.00  0.00    +0.000 C 
ENDBRANCH   56   57
BRANCH   71   72
ATOM     72  C53 UNL A   1      43.442  25.018  26.112  1.00  0.00    +0.000 C 
ATOM     73  C54 UNL A   1      44.460  24.799  25.167  1.00  0.00    +0.000 C 
ATOM     74  F11 UNL A   1      45.234  25.818  24.765  1.00  0.00    +0.000 F 
ATOM     75  C55 UNL A   1      44.749  23.519  24.682  1.00  0.00    +0.000 C 
ATOM     76  F12 UNL A   1      45.773  23.340  23.835  1.00  0.00    +0.000 F 
ATOM     77  C56 UNL A   1      44.025  22.424  25.123  1.00  0.00    +0.000 C 
ATOM     78  F13 UNL A   1      44.347  21.189  24.714  1.00  0.00    +0.000 F 
ATOM     79  C57 UNL A   1      42.994  22.611  26.026  1.00  0.00    +0.000 C 
ATOM     80  F14 UNL A   1      42.311  21.553  26.488  1.00  0.00    +0.000 F 
ATOM     81  C58 UNL A   1      42.705  23.887  26.512  1.00  0.00    +0.000 C 
ATOM     82  F15 UNL A   1      41.759  23.985  27.457  1.00  0.00    +0.000 F 
ENDBRANCH   71   72
TORSDOF 18
ENDMDL
MODEL 10
REMARK VINA RESULT:     -10.2     35.729     42.140
ROOT
ATOM    129  H36 UNL A   1       1.522  14.758  36.785  1.00  0.00    +0.000 H 
ATOM    130  H37 UNL A   1       3.708  15.357  38.012  1.00  0.00    +0.000 H 
ATOM    131  H38 UNL A   1       5.989   9.889  38.303  1.00  0.00    +0.000 H 
ATOM    132  H39 UNL A   1       3.525   9.207  38.660  1.00  0.00    +0.000 H 
ATOM     35  C29 UNL A   1       2.278  10.708  40.778  1.00  0.00    +0.000 C 
ATOM     36  C30 UNL A   1       3.606  10.922  40.147  1.00  0.00    +0.000 C 
ATOM     37  N5  UNL A   1       4.517  11.767  40.503  1.00  0.00    +0.000 N 
ATOM     38  C31 UNL A   1       5.547  11.625  39.576  1.00  0.00    +0.000 C 
ATOM     39  C32 UNL A   1       6.343  12.685  39.266  1.00  0.00    +0.000 C 
ATOM     51  C39 UNL A   1       6.202  13.729  40.253  1.00  0.00    +0.000 C 
ATOM     52  C40 UNL A   1       6.461  13.858  41.601  1.00  0.00    +0.000 C 
ATOM     53  C41 UNL A   1       5.420  14.697  42.105  1.00  0.00    +0.000 C 
ATOM     54  C42 UNL A   1       4.620  15.097  41.034  1.00  0.00    +0.000 C 
ATOM     55  N6  UNL A   1       5.342  14.746  39.928  1.00  0.00    +0.000 N 
ATOM     56  C43 UNL A   1       3.279  15.635  40.961  1.00  0.00    +0.000 C 
ATOM     68  C50 UNL A   1       2.506  15.674  39.836  1.00  0.00    +0.000 C 
ATOM     69  N7  UNL A   1       1.124  15.709  39.940  1.00  0.00    +0.000 N 
ATOM     70  C51 UNL A   1       0.699  15.110  38.861  1.00  0.00    +0.000 C 
ATOM     71  C52 UNL A   1      -0.473  14.203  38.841  1.00  0.00    +0.000 C 
ATOM     83  C59 UNL A   1      -0.134  13.121  39.584  1.00  0.00    +0.000 C 
ATOM     84  C60 UNL A   1      -0.979  12.137  40.220  1.00  0.00    +0.000 C 
ATOM     85  C61 UNL A   1      -0.188  11.270  40.883  1.00  0.00    +0.000 C 
ATOM     86  C62 UNL A   1       1.221  11.524  40.557  1.00  0.00    +0.000 C 
ATOM     87  N8  UNL A   1       1.189  12.717  39.869  1.00  0.00    +0.000 N 
ATOM     88  C63 UNL A   1       1.658  15.010  37.777  1.00  0.00    +0.000 C 
ATOM     89  C64 UNL A   1       2.769  15.340  38.439  1.00  0.00    +0.000 C 
ATOM     90  C65 UNL A   1       5.298  10.389  38.885  1.00  0.00    +0.000 C 
ATOM     91  C66 UNL A   1       4.046   9.980  39.104  1.00  0.00    +0.000 C 
ATOM    123  H30 UNL A   1       7.239  13.437  42.133  1.00  0.00    +0.000 H 
ATOM    124  H31 UNL A   1       5.283  14.961  43.093  1.00  0.00    +0.000 H 
ATOM    125  H32 UNL A   1       5.257  15.159  39.038  1.00  0.00    +0.000 H 
ATOM    126  H33 UNL A   1      -2.009  12.103  40.173  1.00  0.00    +0.000 H 
ATOM    127  H34 UNL A   1      -0.525  10.536  41.526  1.00  0.00    +0.000 H 
ATOM    128  H35 UNL A   1       1.990  13.225  39.608  1.00  0.00    +0.000 H 
ENDROOT
BRANCH   35   34
ATOM     33  C27 UNL A   1       1.809   8.250  40.746  1.00  0.00    +0.000 C 
ATOM     34  C28 UNL A   1       2.141   9.420  41.448  1.00  0.00    +0.000 C 
ATOM    133  H40 UNL A   1       2.370  10.295  43.351  1.00  0.00    +0.000 H 
ATOM    134  H41 UNL A   1       2.481   8.162  44.486  1.00  0.00    +0.000 H 
ATOM    121  H28 UNL A   1       1.244   6.224  40.969  1.00  0.00    +0.000 H 
ATOM    122  H29 UNL A   1       1.761   8.256  39.715  1.00  0.00    +0.000 H 
ATOM     92  C67 UNL A   1       2.244   9.412  42.833  1.00  0.00    +0.000 C 
ATOM     93  C68 UNL A   1       2.176   8.222  43.501  1.00  0.00    +0.000 C 
ATOM     31  C25 UNL A   1       1.696   7.092  42.849  1.00  0.00    +0.000 C 
ATOM     32  C26 UNL A   1       1.545   7.081  41.458  1.00  0.00    +0.000 C 
BRANCH   31   29
ATOM     29  C24 UNL A   1       1.310   5.945  43.687  1.00  0.00    +0.000 C 
ATOM     30  O2  UNL A   1       0.126   5.644  43.820  1.00  0.00    +0.000 O 
BRANCH   29   28
ATOM     28  N4  UNL A   1       2.307   5.217  44.314  1.00  0.00    +0.000 N 
ATOM    120  H27 UNL A   1       3.077   5.722  44.661  1.00  0.00    +0.000 H 
BRANCH   28   27
ATOM     27  C23 UNL A   1       2.325   3.764  44.511  1.00  0.00    +0.000 C 
ATOM    118  H25 UNL A   1       3.152   3.517  45.144  1.00  0.00    +0.000 H 
ATOM    119  H26 UNL A   1       1.389   3.490  44.951  1.00  0.00    +0.000 H 
BRANCH   27   26
ATOM     26  C22 UNL A   1       2.460   2.986  43.211  1.00  0.00    +0.000 C 
ATOM    116  H23 UNL A   1       2.583   1.952  43.452  1.00  0.00    +0.000 H 
ATOM    117  H24 UNL A   1       1.573   3.185  42.646  1.00  0.00    +0.000 H 
BRANCH   26   25
ATOM     25  C21 UNL A   1       3.641   3.414  42.328  1.00  0.00    +0.000 C 
ATOM    114  H21 UNL A   1       3.862   4.436  42.559  1.00  0.00    +0.000 H 
ATOM    115  H22 UNL A   1       4.423   2.721  42.555  1.00  0.00    +0.000 H 
BRANCH   25   24
ATOM    113  H20 UNL A   1       4.120   4.029  40.387  1.00  0.00    +0.000 H 
ATOM    112  H19 UNL A   1       2.413   3.499  40.600  1.00  0.00    +0.000 H 
ATOM     24  C20 UNL A   1       3.446   3.313  40.808  1.00  0.00    +0.000 C 
BRANCH   24   23
ATOM    111  H18 UNL A   1       3.846   1.254  40.951  1.00  0.00    +0.000 H 
ATOM    110  H17 UNL A   1       4.761   2.094  39.667  1.00  0.00    +0.000 H 
ATOM     23  C19 UNL A   1       3.818   1.974  40.161  1.00  0.00    +0.000 C 
BRANCH   23   22
ATOM    108  H15 UNL A   1       3.195   0.561  38.703  1.00  0.00    +0.000 H 
ATOM    109  H16 UNL A   1       1.890   1.283  39.658  1.00  0.00    +0.000 H 
ATOM     22  C18 UNL A   1       2.810   1.459  39.142  1.00  0.00    +0.000 C 
BRANCH   22   21
ATOM    107  H14 UNL A   1       2.259   3.328  38.322  1.00  0.00    +0.000 H 
ATOM     21  N3  UNL A   1       2.544   2.416  38.083  1.00  0.00    +0.000 N 
BRANCH   21    2
ATOM      1  O1  UNL A   1       2.441   0.952  36.325  1.00  0.00    +0.000 O 
ATOM      2  C1  UNL A   1       2.681   2.082  36.750  1.00  0.00    +0.000 C 
BRANCH    2    3
ATOM      3  C2  UNL A   1       3.234   3.156  35.838  1.00  0.00    +0.000 C 
ATOM     94  H1  UNL A   1       3.299   2.750  34.850  1.00  0.00    +0.000 H 
ATOM     95  H2  UNL A   1       4.182   3.434  36.248  1.00  0.00    +0.000 H 
BRANCH    3    4
ATOM      4  N1  UNL A   1       2.450   4.380  35.772  1.00  0.00    +0.000 N 
ATOM      5  C3  UNL A   1       1.223   4.461  35.165  1.00  0.00    +0.000 C 
ATOM      6  N2  UNL A   1       0.671   5.639  35.333  1.00  0.00    +0.000 N 
ATOM      7  C4  UNL A   1       1.573   6.353  36.079  1.00  0.00    +0.000 C 
ATOM     14  C11 UNL A   1       2.699   5.596  36.382  1.00  0.00    +0.000 C 
ATOM     96  H3  UNL A   1       0.786   3.687  34.641  1.00  0.00    +0.000 H 
BRANCH    7    8
ATOM     97  H4  UNL A   1       2.985   8.528  35.463  1.00  0.00    +0.000 H 
ATOM     98  H5  UNL A   1       2.507  10.830  36.063  1.00  0.00    +0.000 H 
ATOM     99  H6  UNL A   1       0.610  11.348  37.484  1.00  0.00    +0.000 H 
ATOM    100  H7  UNL A   1      -0.800   9.562  38.327  1.00  0.00    +0.000 H 
ATOM    101  H8  UNL A   1      -0.335   7.263  37.715  1.00  0.00    +0.000 H 
ATOM      8  C5  UNL A   1       1.345   7.716  36.517  1.00  0.00    +0.000 C 
ATOM      9  C6  UNL A   1       2.173   8.746  36.060  1.00  0.00    +0.000 C 
ATOM     10  C7  UNL A   1       1.902  10.071  36.411  1.00  0.00    +0.000 C 
ATOM     11  C8  UNL A   1       0.813  10.368  37.232  1.00  0.00    +0.000 C 
ATOM     12  C9  UNL A   1      -0.000   9.343  37.711  1.00  0.00    +0.000 C 
ATOM     13  C10 UNL A   1       0.266   8.020  37.356  1.00  0.00    +0.000 C 
ENDBRANCH    7    8
BRANCH   14   15
ATOM    102  H9  UNL A   1       2.880   5.700  39.049  1.00  0.00    +0.000 H 
ATOM    103  H10 UNL A   1       4.761   6.431  40.395  1.00  0.00    +0.000 H 
ATOM    104  H11 UNL A   1       6.851   7.050  39.333  1.00  0.00    +0.000 H 
ATOM    105  H12 UNL A   1       7.038   7.007  36.915  1.00  0.00    +0.000 H 
ATOM    106  H13 UNL A   1       5.128   6.377  35.568  1.00  0.00    +0.000 H 
ATOM     15  C12 UNL A   1       3.863   5.942  37.195  1.00  0.00    +0.000 C 
ATOM     16  C13 UNL A   1       3.761   5.980  38.591  1.00  0.00    +0.000 C 
ATOM     17  C14 UNL A   1       4.847   6.396  39.368  1.00  0.00    +0.000 C 
ATOM     18  C15 UNL A   1       6.045   6.763  38.758  1.00  0.00    +0.000 C 
ATOM     19  C16 UNL A   1       6.151   6.740  37.370  1.00  0.00    +0.000 C 
ATOM     20  C17 UNL A   1       5.056   6.356  36.597  1.00  0.00    +0.000 C 
ENDBRANCH   14   15
ENDBRANCH    3    4
ENDBRANCH    2    3
ENDBRANCH   21    2
ENDBRANCH   22   21
ENDBRANCH   23   22
ENDBRANCH   24   23
ENDBRANCH   25   24
ENDBRANCH   26   25
ENDBRANCH   27   26
ENDBRANCH   28   27
ENDBRANCH   29   28
ENDBRANCH   31   29
ENDBRANCH   35   34
BRANCH   39   40
ATOM     40  C33 UNL A   1       6.877  12.986  37.877  1.00  0.00    +0.000 C 
ATOM     41  C34 UNL A   1       8.220  13.404  37.746  1.00  0.00    +0.000 C 
ATOM     42  F1  UNL A   1       9.081  13.266  38.764  1.00  0.00    +0.000 F 
ATOM     43  C35 UNL A   1       8.682  14.066  36.604  1.00  0.00    +0.000 C 
ATOM     44  F2  UNL A   1       9.926  14.565  36.582  1.00  0.00    +0.000 F 
ATOM     45  C36 UNL A   1       7.843  14.277  35.528  1.00  0.00    +0.000 C 
ATOM     46  F3  UNL A   1       8.263  14.969  34.459  1.00  0.00    +0.000 F 
ATOM     47  C37 UNL A   1       6.548  13.812  35.583  1.00  0.00    +0.000 C 
ATOM     48  F4  UNL A   1       5.713  14.025  34.556  1.00  0.00    +0.000 F 
ATOM     49  C38 UNL A   1       6.068  13.198  36.740  1.00  0.00    +0.000 C 
ATOM     50  F5  UNL A   1       4.759  12.930  36.727  1.00  0.00    +0.000 F 
ENDBRANCH   39   40
BRANCH   56   57
ATOM     65  F9  UNL A   1       2.495  18.952  44.405  1.00  0.00    +0.000 F 
ATOM     66  C49 UNL A   1       2.767  17.312  42.726  1.00  0.00    +0.000 C 
ATOM     67  F10 UNL A   1       3.416  18.217  41.977  1.00  0.00    +0.000 F 
ATOM     57  C44 UNL A   1       2.623  15.996  42.266  1.00  0.00    +0.000 C 
ATOM     58  C45 UNL A   1       1.976  15.082  43.116  1.00  0.00    +0.000 C 
ATOM     59  F6  UNL A   1       1.876  13.789  42.784  1.00  0.00    +0.000 F 
ATOM     60  C46 UNL A   1       1.465  15.481  44.351  1.00  0.00    +0.000 C 
ATOM     61  F7  UNL A   1       0.838  14.595  45.139  1.00  0.00    +0.000 F 
ATOM     62  C47 UNL A   1       1.631  16.787  44.783  1.00  0.00    +0.000 C 
ATOM     63  F8  UNL A   1       1.176  17.163  45.986  1.00  0.00    +0.000 F 
ATOM     64  C48 UNL A   1       2.291  17.699  43.974  1.00  0.00    +0.000 C 
ENDBRANCH   56   57
BRANCH   71   72
ATOM     72  C53 UNL A   1      -1.590  14.373  37.884  1.00  0.00    +0.000 C 
ATOM     73  C54 UNL A   1      -1.619  13.665  36.671  1.00  0.00    +0.000 C 
ATOM     74  F11 UNL A   1      -0.525  13.013  36.246  1.00  0.00    +0.000 F 
ATOM     75  C55 UNL A   1      -2.791  13.547  35.916  1.00  0.00    +0.000 C 
ATOM     76  F12 UNL A   1      -2.797  12.804  34.800  1.00  0.00    +0.000 F 
ATOM     77  C56 UNL A   1      -3.964  14.141  36.350  1.00  0.00    +0.000 C 
ATOM     78  F13 UNL A   1      -5.104  13.970  35.665  1.00  0.00    +0.000 F 
ATOM     79  C57 UNL A   1      -3.961  14.875  37.522  1.00  0.00    +0.000 C 
ATOM     80  F14 UNL A   1      -5.100  15.423  37.971  1.00  0.00    +0.000 F 
ATOM     81  C58 UNL A   1      -2.792  14.992  38.277  1.00  0.00    +0.000 C 
ATOM     82  F15 UNL A   1      -2.880  15.635  39.450  1.00  0.00    +0.000 F 
ENDBRANCH   71   72
TORSDOF 18
ENDMDL
