MODEL 1
REMARK VINA RESULT:     -12.2      0.000      0.000
ROOT
ATOM     21  C17 UNL A   1      39.916  28.417  29.875  1.00  0.00    +0.000 C 
ATOM     22  C18 UNL A   1      40.447  28.280  31.260  1.00  0.00    +0.000 C 
ATOM     23  N3  UNL A   1      41.588  28.685  31.713  1.00  0.00    +0.000 N 
ATOM     24  C19 UNL A   1      41.618  28.322  33.056  1.00  0.00    +0.000 C 
ATOM     25  C20 UNL A   1      42.795  28.201  33.730  1.00  0.00    +0.000 C 
ATOM     37  C27 UNL A   1      43.853  28.915  33.064  1.00  0.00    +0.000 C 
ATOM     38  C28 UNL A   1      44.114  30.243  32.796  1.00  0.00    +0.000 C 
ATOM     39  C29 UNL A   1      44.742  30.247  31.516  1.00  0.00    +0.000 C 
ATOM     40  C30 UNL A   1      44.878  28.921  31.103  1.00  0.00    +0.000 C 
ATOM     41  N4  UNL A   1      44.694  28.199  32.252  1.00  0.00    +0.000 N 
ATOM     42  C31 UNL A   1      45.059  28.317  29.806  1.00  0.00    +0.000 C 
ATOM     54  C38 UNL A   1      44.779  27.015  29.508  1.00  0.00    +0.000 C 
ATOM     55  N5  UNL A   1      44.548  26.622  28.199  1.00  0.00    +0.000 N 
ATOM     56  C39 UNL A   1      43.779  25.574  28.301  1.00  0.00    +0.000 C 
ATOM     57  C40 UNL A   1      42.649  25.298  27.379  1.00  0.00    +0.000 C 
ATOM     69  C47 UNL A   1      41.715  26.257  27.606  1.00  0.00    +0.000 C 
ATOM     70  C48 UNL A   1      40.615  26.712  26.784  1.00  0.00    +0.000 C 
ATOM     71  C49 UNL A   1      39.934  27.661  27.460  1.00  0.00    +0.000 C 
ATOM     72  C50 UNL A   1      40.456  27.766  28.823  1.00  0.00    +0.000 C 
ATOM     73  N6  UNL A   1      41.591  26.982  28.808  1.00  0.00    +0.000 N 
ATOM     74  C51 UNL A   1      43.761  24.928  29.604  1.00  0.00    +0.000 C 
ATOM     75  C52 UNL A   1      44.320  25.899  30.329  1.00  0.00    +0.000 C 
ATOM     76  C53 UNL A   1      40.284  27.901  33.395  1.00  0.00    +0.000 C 
ATOM     77  C54 UNL A   1      39.534  27.779  32.299  1.00  0.00    +0.000 C 
ATOM    117  H22 UNL A   1      43.903  31.058  33.393  1.00  0.00    +0.000 H 
ATOM    118  H23 UNL A   1      45.041  31.082  30.988  1.00  0.00    +0.000 H 
ATOM    119  H24 UNL A   1      45.094  27.323  32.458  1.00  0.00    +0.000 H 
ATOM    120  H25 UNL A   1      40.389  26.368  25.837  1.00  0.00    +0.000 H 
ATOM    121  H26 UNL A   1      39.161  28.226  27.075  1.00  0.00    +0.000 H 
ATOM    122  H27 UNL A   1      42.238  26.936  29.550  1.00  0.00    +0.000 H 
ATOM    123  H28 UNL A   1      43.418  23.995  29.884  1.00  0.00    +0.000 H 
ATOM    124  H29 UNL A   1      44.418  25.864  31.356  1.00  0.00    +0.000 H 
ATOM    125  H30 UNL A   1      39.953  27.719  34.356  1.00  0.00    +0.000 H 
ATOM    126  H31 UNL A   1      38.568  27.428  32.205  1.00  0.00    +0.000 H 
ENDROOT
BRANCH   21   20
ATOM     78  C55 UNL A   1      37.481  28.847  30.150  1.00  0.00    +0.000 C 
ATOM     79  C56 UNL A   1      36.395  29.693  29.965  1.00  0.00    +0.000 C 
ATOM     17  C13 UNL A   1      36.560  30.984  29.425  1.00  0.00    +0.000 C 
ATOM     18  C14 UNL A   1      37.853  31.452  29.204  1.00  0.00    +0.000 C 
ATOM     19  C15 UNL A   1      38.940  30.600  29.354  1.00  0.00    +0.000 C 
ATOM    115  H20 UNL A   1      38.005  32.435  28.927  1.00  0.00    +0.000 H 
ATOM    116  H21 UNL A   1      39.893  30.943  29.159  1.00  0.00    +0.000 H 
ATOM     20  C16 UNL A   1      38.744  29.280  29.769  1.00  0.00    +0.000 C 
ATOM    127  H32 UNL A   1      37.351  27.910  30.562  1.00  0.00    +0.000 H 
ATOM    128  H33 UNL A   1      35.452  29.370  30.228  1.00  0.00    +0.000 H 
BRANCH   17   15
ATOM     15  C12 UNL A   1      35.305  31.689  29.048  1.00  0.00    +0.000 C 
ATOM     16  O2  UNL A   1      34.762  32.416  29.883  1.00  0.00    +0.000 O 
BRANCH   15   14
ATOM    114  H19 UNL A   1      34.961  32.160  27.169  1.00  0.00    +0.000 H 
ATOM     14  N2  UNL A   1      34.644  31.536  27.861  1.00  0.00    +0.000 N 
BRANCH   14   13
ATOM    113  H18 UNL A   1      33.400  30.930  26.365  1.00  0.00    +0.000 H 
ATOM     13  C11 UNL A   1      33.587  30.668  27.385  1.00  0.00    +0.000 C 
ATOM    112  H17 UNL A   1      32.727  30.813  28.006  1.00  0.00    +0.000 H 
BRANCH   13   12
ATOM     12  C10 UNL A   1      33.956  29.184  27.409  1.00  0.00    +0.000 C 
ATOM    110  H15 UNL A   1      34.918  29.071  26.955  1.00  0.00    +0.000 H 
ATOM    111  H16 UNL A   1      33.945  28.879  28.434  1.00  0.00    +0.000 H 
BRANCH   12   11
ATOM     11  C9  UNL A   1      32.963  28.281  26.667  1.00  0.00    +0.000 C 
ATOM    108  H13 UNL A   1      32.330  27.818  27.394  1.00  0.00    +0.000 H 
ATOM    109  H14 UNL A   1      32.436  28.914  25.985  1.00  0.00    +0.000 H 
BRANCH   11   10
ATOM     10  C8  UNL A   1      33.603  27.176  25.820  1.00  0.00    +0.000 C 
ATOM    107  H12 UNL A   1      32.886  26.383  25.766  1.00  0.00    +0.000 H 
ATOM    106  H11 UNL A   1      34.518  26.883  26.290  1.00  0.00    +0.000 H 
BRANCH   10    9
ATOM      9  C7  UNL A   1      33.915  27.575  24.373  1.00  0.00    +0.000 C 
ATOM    105  H10 UNL A   1      33.411  26.880  23.736  1.00  0.00    +0.000 H 
ATOM    104  H9  UNL A   1      34.976  27.551  24.235  1.00  0.00    +0.000 H 
BRANCH    9    8
ATOM    102  H7  UNL A   1      32.959  29.414  24.872  1.00  0.00    +0.000 H 
ATOM    103  H8  UNL A   1      34.243  29.554  23.675  1.00  0.00    +0.000 H 
ATOM      8  C6  UNL A   1      33.410  28.972  24.010  1.00  0.00    +0.000 C 
BRANCH    8    7
ATOM    101  H6  UNL A   1      32.768  29.137  22.041  1.00  0.00    +0.000 H 
ATOM      7  N1  UNL A   1      32.432  28.919  22.941  1.00  0.00    +0.000 N 
BRANCH    7    5
ATOM      5  C5  UNL A   1      31.106  28.606  23.021  1.00  0.00    +0.000 C 
ATOM      6  O1  UNL A   1      30.369  29.338  23.686  1.00  0.00    +0.000 O 
BRANCH    5    4
ATOM    100  H5  UNL A   1      30.904  27.366  21.337  1.00  0.00    +0.000 H 
ATOM     99  H4  UNL A   1      29.514  27.332  22.445  1.00  0.00    +0.000 H 
ATOM      4  C4  UNL A   1      30.580  27.342  22.356  1.00  0.00    +0.000 C 
BRANCH    4    3
ATOM    129  H34 UNL A   1      29.250  26.805  25.043  1.00  0.00    +0.000 H 
ATOM      2  C2  UNL A   1      32.092  25.236  22.432  1.00  0.00    +0.000 C 
ATOM      3  C3  UNL A   1      31.118  26.074  22.959  1.00  0.00    +0.000 C 
ATOM    132  H37 UNL A   1      31.998  22.886  25.870  1.00  0.00    +0.000 H 
ATOM    130  H35 UNL A   1      28.960  25.524  27.080  1.00  0.00    +0.000 H 
ATOM    131  H36 UNL A   1      30.347  23.598  27.501  1.00  0.00    +0.000 H 
ATOM     80  C57 UNL A   1      30.736  25.531  24.216  1.00  0.00    +0.000 C 
ATOM     81  C58 UNL A   1      29.813  25.955  25.199  1.00  0.00    +0.000 C 
ATOM     82  C59 UNL A   1      29.660  25.231  26.381  1.00  0.00    +0.000 C 
ATOM     83  C60 UNL A   1      30.450  24.119  26.616  1.00  0.00    +0.000 C 
ATOM     84  C61 UNL A   1      31.387  23.694  25.668  1.00  0.00    +0.000 C 
ATOM     85  C62 UNL A   1      31.491  24.373  24.436  1.00  0.00    +0.000 C 
ATOM     86  N7  UNL A   1      32.228  24.117  23.268  1.00  0.00    +0.000 N 
BRANCH    2    1
ATOM      1  C1  UNL A   1      32.873  25.399  21.163  1.00  0.00    +0.000 C 
ATOM     98  H3  UNL A   1      32.223  25.743  20.386  1.00  0.00    +0.000 H 
ATOM     97  H2  UNL A   1      33.655  26.112  21.315  1.00  0.00    +0.000 H 
ATOM     96  H1  UNL A   1      33.297  24.457  20.883  1.00  0.00    +0.000 H 
ENDBRANCH    2    1
BRANCH   86   87
ATOM     87  C63 UNL A   1      32.978  22.944  22.948  1.00  0.00    +0.000 C 
ATOM     88  O3  UNL A   1      32.535  22.165  22.112  1.00  0.00    +0.000 O 
BRANCH   87   89
ATOM    133  H38 UNL A   1      35.424  24.066  22.589  1.00  0.00    +0.000 H 
ATOM    134  H39 UNL A   1      37.546  23.261  23.472  1.00  0.00    +0.000 H 
ATOM    135  H40 UNL A   1      35.523  20.283  25.652  1.00  0.00    +0.000 H 
ATOM    136  H41 UNL A   1      33.405  21.049  24.733  1.00  0.00    +0.000 H 
ATOM     89  C64 UNL A   1      34.273  22.561  23.534  1.00  0.00    +0.000 C 
ATOM     90  C65 UNL A   1      35.451  23.241  23.208  1.00  0.00    +0.000 C 
ATOM     91  C66 UNL A   1      36.666  22.789  23.731  1.00  0.00    +0.000 C 
ATOM     92  C67 UNL A   1      36.687  21.699  24.603  1.00  0.00    +0.000 C 
ATOM     93 Cl1  UNL A   1      38.189  21.116  25.206  1.00  0.00    +0.000 Cl
ATOM     94  C68 UNL A   1      35.501  21.068  24.982  1.00  0.00    +0.000 C 
ATOM     95  C69 UNL A   1      34.288  21.503  24.451  1.00  0.00    +0.000 C 
ENDBRANCH   87   89
ENDBRANCH   86   87
ENDBRANCH    4    3
ENDBRANCH    5    4
ENDBRANCH    7    5
ENDBRANCH    8    7
ENDBRANCH    9    8
ENDBRANCH   10    9
ENDBRANCH   11   10
ENDBRANCH   12   11
ENDBRANCH   13   12
ENDBRANCH   14   13
ENDBRANCH   15   14
ENDBRANCH   17   15
ENDBRANCH   21   20
BRANCH   25   26
ATOM     33  C25 UNL A   1      44.010  24.962  35.408  1.00  0.00    +0.000 C 
ATOM     34  F4  UNL A   1      44.377  23.726  35.039  1.00  0.00    +0.000 F 
ATOM     35  C26 UNL A   1      43.442  25.817  34.465  1.00  0.00    +0.000 C 
ATOM     36  F5  UNL A   1      43.374  25.326  33.224  1.00  0.00    +0.000 F 
ATOM     26  C21 UNL A   1      43.073  27.144  34.773  1.00  0.00    +0.000 C 
ATOM     27  C22 UNL A   1      43.287  27.537  36.111  1.00  0.00    +0.000 C 
ATOM     28  F1  UNL A   1      42.988  28.780  36.517  1.00  0.00    +0.000 F 
ATOM     29  C23 UNL A   1      43.903  26.693  37.040  1.00  0.00    +0.000 C 
ATOM     30  F2  UNL A   1      44.203  27.155  38.263  1.00  0.00    +0.000 F 
ATOM     31  C24 UNL A   1      44.273  25.409  36.685  1.00  0.00    +0.000 C 
ATOM     32  F3  UNL A   1      44.921  24.622  37.553  1.00  0.00    +0.000 F 
ENDBRANCH   25   26
BRANCH   42   43
ATOM     43  C32 UNL A   1      45.356  29.247  28.661  1.00  0.00    +0.000 C 
ATOM     44  C33 UNL A   1      44.370  29.966  27.963  1.00  0.00    +0.000 C 
ATOM     45  F6  UNL A   1      43.071  29.813  28.255  1.00  0.00    +0.000 F 
ATOM     46  C34 UNL A   1      44.715  30.905  26.990  1.00  0.00    +0.000 C 
ATOM     47  F7  UNL A   1      43.758  31.578  26.333  1.00  0.00    +0.000 F 
ATOM     48  C35 UNL A   1      46.049  31.177  26.730  1.00  0.00    +0.000 C 
ATOM     49  F8  UNL A   1      46.382  32.116  25.833  1.00  0.00    +0.000 F 
ATOM     50  C36 UNL A   1      47.037  30.497  27.424  1.00  0.00    +0.000 C 
ATOM     51  F9  UNL A   1      48.327  30.793  27.212  1.00  0.00    +0.000 F 
ATOM     52  C37 UNL A   1      46.695  29.534  28.368  1.00  0.00    +0.000 C 
ATOM     53  F10 UNL A   1      47.677  28.916  29.041  1.00  0.00    +0.000 F 
ENDBRANCH   42   43
BRANCH   57   58
ATOM     65  C45 UNL A   1      41.616  21.685  26.864  1.00  0.00    +0.000 C 
ATOM     66  F14 UNL A   1      40.768  20.810  27.422  1.00  0.00    +0.000 F 
ATOM     67  C46 UNL A   1      41.561  23.031  27.229  1.00  0.00    +0.000 C 
ATOM     68  F15 UNL A   1      40.661  23.374  28.162  1.00  0.00    +0.000 F 
ATOM     58  C41 UNL A   1      42.476  23.976  26.728  1.00  0.00    +0.000 C 
ATOM     59  C42 UNL A   1      43.424  23.498  25.805  1.00  0.00    +0.000 C 
ATOM     60  F11 UNL A   1      44.358  24.323  25.309  1.00  0.00    +0.000 F 
ATOM     61  C43 UNL A   1      43.479  22.148  25.442  1.00  0.00    +0.000 C 
ATOM     62  F12 UNL A   1      44.443  21.716  24.614  1.00  0.00    +0.000 F 
ATOM     63  C44 UNL A   1      42.585  21.240  25.983  1.00  0.00    +0.000 C 
ATOM     64  F13 UNL A   1      42.682  19.935  25.691  1.00  0.00    +0.000 F 
ENDBRANCH   57   58
TORSDOF 19
ENDMDL
MODEL 2
REMARK VINA RESULT:     -12.0      1.219      2.097
ROOT
ATOM     21  C17 UNL A   1      40.031  28.894  29.040  1.00  0.00    +0.000 C 
ATOM     22  C18 UNL A   1      40.374  28.695  30.475  1.00  0.00    +0.000 C 
ATOM     23  N3  UNL A   1      41.350  29.226  31.137  1.00  0.00    +0.000 N 
ATOM     24  C19 UNL A   1      41.251  28.728  32.433  1.00  0.00    +0.000 C 
ATOM     25  C20 UNL A   1      42.322  28.725  33.273  1.00  0.00    +0.000 C 
ATOM     37  C27 UNL A   1      43.322  29.668  32.846  1.00  0.00    +0.000 C 
ATOM     38  C28 UNL A   1      43.382  31.042  32.734  1.00  0.00    +0.000 C 
ATOM     39  C29 UNL A   1      44.176  31.286  31.575  1.00  0.00    +0.000 C 
ATOM     40  C30 UNL A   1      44.600  30.052  31.080  1.00  0.00    +0.000 C 
ATOM     41  N4  UNL A   1      44.383  29.189  32.122  1.00  0.00    +0.000 N 
ATOM     42  C31 UNL A   1      45.068  29.629  29.783  1.00  0.00    +0.000 C 
ATOM     54  C38 UNL A   1      45.066  28.339  29.338  1.00  0.00    +0.000 C 
ATOM     55  N5  UNL A   1      45.098  28.059  27.981  1.00  0.00    +0.000 N 
ATOM     56  C39 UNL A   1      44.517  26.896  27.872  1.00  0.00    +0.000 C 
ATOM     57  C40 UNL A   1      43.597  26.544  26.761  1.00  0.00    +0.000 C 
ATOM     69  C47 UNL A   1      42.487  27.310  26.916  1.00  0.00    +0.000 C 
ATOM     70  C48 UNL A   1      41.453  27.669  25.969  1.00  0.00    +0.000 C 
ATOM     71  C49 UNL A   1      40.526  28.418  26.604  1.00  0.00    +0.000 C 
ATOM     72  C50 UNL A   1      40.821  28.456  28.037  1.00  0.00    +0.000 C 
ATOM     73  N6  UNL A   1      42.067  27.872  28.138  1.00  0.00    +0.000 N 
ATOM     74  C51 UNL A   1      44.426  26.118  29.097  1.00  0.00    +0.000 C 
ATOM     75  C52 UNL A   1      44.697  27.081  29.980  1.00  0.00    +0.000 C 
ATOM     76  C53 UNL A   1      39.976  28.065  32.518  1.00  0.00    +0.000 C 
ATOM     77  C54 UNL A   1      39.424  27.944  31.311  1.00  0.00    +0.000 C 
ATOM    117  H22 UNL A   1      42.948  31.743  33.355  1.00  0.00    +0.000 H 
ATOM    118  H23 UNL A   1      44.397  32.210  31.173  1.00  0.00    +0.000 H 
ATOM    119  H24 UNL A   1      44.897  28.372  32.315  1.00  0.00    +0.000 H 
ATOM    120  H25 UNL A   1      41.429  27.399  24.973  1.00  0.00    +0.000 H 
ATOM    121  H26 UNL A   1      39.729  28.890  26.149  1.00  0.00    +0.000 H 
ATOM    122  H27 UNL A   1      42.599  27.849  28.967  1.00  0.00    +0.000 H 
ATOM    123  H28 UNL A   1      44.216  25.118  29.240  1.00  0.00    +0.000 H 
ATOM    124  H29 UNL A   1      44.651  26.951  31.003  1.00  0.00    +0.000 H 
ATOM    125  H30 UNL A   1      39.548  27.729  33.396  1.00  0.00    +0.000 H 
ATOM    126  H31 UNL A   1      38.558  27.454  31.035  1.00  0.00    +0.000 H 
ENDROOT
BRANCH   21   20
ATOM     78  C55 UNL A   1      37.624  28.868  28.409  1.00  0.00    +0.000 C 
ATOM     79  C56 UNL A   1      36.454  29.573  28.157  1.00  0.00    +0.000 C 
ATOM     17  C13 UNL A   1      36.390  30.969  28.334  1.00  0.00    +0.000 C 
ATOM     18  C14 UNL A   1      37.485  31.618  28.901  1.00  0.00    +0.000 C 
ATOM     19  C15 UNL A   1      38.669  30.926  29.124  1.00  0.00    +0.000 C 
ATOM    115  H20 UNL A   1      37.417  32.616  29.155  1.00  0.00    +0.000 H 
ATOM    116  H21 UNL A   1      39.487  31.418  29.515  1.00  0.00    +0.000 H 
ATOM     20  C16 UNL A   1      38.753  29.564  28.820  1.00  0.00    +0.000 C 
ATOM    127  H32 UNL A   1      37.655  27.843  28.293  1.00  0.00    +0.000 H 
ATOM    128  H33 UNL A   1      35.618  29.064  27.832  1.00  0.00    +0.000 H 
BRANCH   17   15
ATOM     15  C12 UNL A   1      35.172  31.632  27.795  1.00  0.00    +0.000 C 
ATOM     16  O2  UNL A   1      35.040  32.847  27.960  1.00  0.00    +0.000 O 
BRANCH   15   14
ATOM    114  H19 UNL A   1      34.420  30.227  26.643  1.00  0.00    +0.000 H 
ATOM     14  N2  UNL A   1      34.127  30.987  27.195  1.00  0.00    +0.000 N 
BRANCH   14   13
ATOM    113  H18 UNL A   1      32.450  31.742  26.316  1.00  0.00    +0.000 H 
ATOM     13  C11 UNL A   1      32.689  31.163  27.183  1.00  0.00    +0.000 C 
ATOM    112  H17 UNL A   1      32.402  31.651  28.091  1.00  0.00    +0.000 H 
BRANCH   13   12
ATOM     12  C10 UNL A   1      31.913  29.849  27.073  1.00  0.00    +0.000 C 
ATOM    110  H15 UNL A   1      31.079  29.896  27.740  1.00  0.00    +0.000 H 
ATOM    111  H16 UNL A   1      31.618  29.750  26.050  1.00  0.00    +0.000 H 
BRANCH   12   11
ATOM     11  C9  UNL A   1      32.739  28.605  27.418  1.00  0.00    +0.000 C 
ATOM    108  H13 UNL A   1      33.757  28.906  27.542  1.00  0.00    +0.000 H 
ATOM    109  H14 UNL A   1      32.305  28.195  28.306  1.00  0.00    +0.000 H 
BRANCH   11   10
ATOM     10  C8  UNL A   1      32.698  27.489  26.368  1.00  0.00    +0.000 C 
ATOM    107  H12 UNL A   1      31.787  27.620  25.823  1.00  0.00    +0.000 H 
ATOM    106  H11 UNL A   1      32.754  26.550  26.876  1.00  0.00    +0.000 H 
BRANCH   10    9
ATOM      9  C7  UNL A   1      33.830  27.540  25.334  1.00  0.00    +0.000 C 
ATOM    105  H10 UNL A   1      33.969  26.546  24.966  1.00  0.00    +0.000 H 
ATOM    104  H9  UNL A   1      34.710  27.919  25.812  1.00  0.00    +0.000 H 
BRANCH    9    8
ATOM    102  H7  UNL A   1      33.974  29.382  24.269  1.00  0.00    +0.000 H 
ATOM    103  H8  UNL A   1      33.882  27.949  23.250  1.00  0.00    +0.000 H 
ATOM      8  C6  UNL A   1      33.510  28.429  24.132  1.00  0.00    +0.000 C 
BRANCH    8    7
ATOM    101  H6  UNL A   1      31.588  28.841  24.801  1.00  0.00    +0.000 H 
ATOM      7  N1  UNL A   1      32.081  28.618  23.979  1.00  0.00    +0.000 N 
BRANCH    7    5
ATOM      5  C5  UNL A   1      31.332  28.528  22.841  1.00  0.00    +0.000 C 
ATOM      6  O1  UNL A   1      31.352  29.473  22.049  1.00  0.00    +0.000 O 
BRANCH    5    4
ATOM    100  H5  UNL A   1      30.344  27.201  21.546  1.00  0.00    +0.000 H 
ATOM     99  H4  UNL A   1      29.509  27.479  23.091  1.00  0.00    +0.000 H 
ATOM      4  C4  UNL A   1      30.448  27.312  22.605  1.00  0.00    +0.000 C 
BRANCH    4    3
ATOM    129  H34 UNL A   1      29.151  26.570  25.260  1.00  0.00    +0.000 H 
ATOM      2  C2  UNL A   1      32.030  25.259  22.547  1.00  0.00    +0.000 C 
ATOM      3  C3  UNL A   1      31.031  26.029  23.128  1.00  0.00    +0.000 C 
ATOM    132  H37 UNL A   1      32.035  22.704  25.838  1.00  0.00    +0.000 H 
ATOM    130  H35 UNL A   1      28.917  25.159  27.216  1.00  0.00    +0.000 H 
ATOM    131  H36 UNL A   1      30.371  23.260  27.516  1.00  0.00    +0.000 H 
ATOM     80  C57 UNL A   1      30.675  25.399  24.352  1.00  0.00    +0.000 C 
ATOM     81  C58 UNL A   1      29.744  25.732  25.362  1.00  0.00    +0.000 C 
ATOM     82  C59 UNL A   1      29.623  24.933  26.499  1.00  0.00    +0.000 C 
ATOM     83  C60 UNL A   1      30.451  23.837  26.663  1.00  0.00    +0.000 C 
ATOM     84  C61 UNL A   1      31.396  23.501  25.688  1.00  0.00    +0.000 C 
ATOM     85  C62 UNL A   1      31.470  24.256  24.499  1.00  0.00    +0.000 C 
ATOM     86  N7  UNL A   1      32.208  24.096  23.314  1.00  0.00    +0.000 N 
BRANCH    2    1
ATOM      1  C1  UNL A   1      32.797  25.524  21.288  1.00  0.00    +0.000 C 
ATOM     98  H3  UNL A   1      32.405  24.920  20.498  1.00  0.00    +0.000 H 
ATOM     97  H2  UNL A   1      32.707  26.557  21.027  1.00  0.00    +0.000 H 
ATOM     96  H1  UNL A   1      33.829  25.284  21.443  1.00  0.00    +0.000 H 
ENDBRANCH    2    1
BRANCH   86   87
ATOM     87  C63 UNL A   1      32.995  22.971  22.921  1.00  0.00    +0.000 C 
ATOM     88  O3  UNL A   1      32.599  22.259  22.006  1.00  0.00    +0.000 O 
BRANCH   87   89
ATOM    133  H38 UNL A   1      33.520  20.950  24.656  1.00  0.00    +0.000 H 
ATOM    134  H39 UNL A   1      35.653  20.453  25.722  1.00  0.00    +0.000 H 
ATOM    135  H40 UNL A   1      37.508  23.463  23.436  1.00  0.00    +0.000 H 
ATOM    136  H41 UNL A   1      35.370  23.998  22.406  1.00  0.00    +0.000 H 
ATOM     89  C64 UNL A   1      34.279  22.565  23.517  1.00  0.00    +0.000 C 
ATOM     90  C65 UNL A   1      34.358  21.507  24.427  1.00  0.00    +0.000 C 
ATOM     91  C66 UNL A   1      35.588  21.211  25.024  1.00  0.00    +0.000 C 
ATOM     92  C67 UNL A   1      36.725  21.941  24.673  1.00  0.00    +0.000 C 
ATOM     93 Cl1  UNL A   1      38.226  21.605  25.445  1.00  0.00    +0.000 Cl
ATOM     94  C68 UNL A   1      36.655  22.949  23.712  1.00  0.00    +0.000 C 
ATOM     95  C69 UNL A   1      35.430  23.260  23.125  1.00  0.00    +0.000 C 
ENDBRANCH   87   89
ENDBRANCH   86   87
ENDBRANCH    4    3
ENDBRANCH    5    4
ENDBRANCH    7    5
ENDBRANCH    8    7
ENDBRANCH    9    8
ENDBRANCH   10    9
ENDBRANCH   11   10
ENDBRANCH   12   11
ENDBRANCH   13   12
ENDBRANCH   14   13
ENDBRANCH   15   14
ENDBRANCH   17   15
ENDBRANCH   21   20
BRANCH   25   26
ATOM     33  C25 UNL A   1      42.134  26.420  36.345  1.00  0.00    +0.000 C 
ATOM     34  F4  UNL A   1      41.600  26.441  37.574  1.00  0.00    +0.000 F 
ATOM     35  C26 UNL A   1      42.122  27.582  35.574  1.00  0.00    +0.000 C 
ATOM     36  F5  UNL A   1      41.500  28.625  36.131  1.00  0.00    +0.000 F 
ATOM     26  C21 UNL A   1      42.628  27.620  34.256  1.00  0.00    +0.000 C 
ATOM     27  C22 UNL A   1      43.177  26.410  33.783  1.00  0.00    +0.000 C 
ATOM     28  F1  UNL A   1      43.675  26.323  32.540  1.00  0.00    +0.000 F 
ATOM     29  C23 UNL A   1      43.142  25.236  34.541  1.00  0.00    +0.000 C 
ATOM     30  F2  UNL A   1      43.558  24.082  34.000  1.00  0.00    +0.000 F 
ATOM     31  C24 UNL A   1      42.611  25.240  35.818  1.00  0.00    +0.000 C 
ATOM     32  F3  UNL A   1      42.517  24.103  36.520  1.00  0.00    +0.000 F 
ENDBRANCH   25   26
BRANCH   42   43
ATOM     43  C32 UNL A   1      45.358  30.714  28.782  1.00  0.00    +0.000 C 
ATOM     44  C33 UNL A   1      46.649  31.199  28.508  1.00  0.00    +0.000 C 
ATOM     45  F6  UNL A   1      47.712  30.745  29.186  1.00  0.00    +0.000 F 
ATOM     46  C34 UNL A   1      46.871  32.120  27.484  1.00  0.00    +0.000 C 
ATOM     47  F7  UNL A   1      48.110  32.574  27.242  1.00  0.00    +0.000 F 
ATOM     48  C35 UNL A   1      45.818  32.537  26.684  1.00  0.00    +0.000 C 
ATOM     49  F8  UNL A   1      46.039  33.381  25.667  1.00  0.00    +0.000 F 
ATOM     50  C36 UNL A   1      44.542  32.052  26.921  1.00  0.00    +0.000 C 
ATOM     51  F9  UNL A   1      43.530  32.412  26.119  1.00  0.00    +0.000 F 
ATOM     52  C37 UNL A   1      44.312  31.162  27.966  1.00  0.00    +0.000 C 
ATOM     53  F10 UNL A   1      43.069  30.691  28.148  1.00  0.00    +0.000 F 
ENDBRANCH   42   43
BRANCH   57   58
ATOM     65  C45 UNL A   1      43.283  22.893  25.782  1.00  0.00    +0.000 C 
ATOM     66  F14 UNL A   1      42.520  21.842  26.115  1.00  0.00    +0.000 F 
ATOM     67  C46 UNL A   1      42.945  24.167  26.243  1.00  0.00    +0.000 C 
ATOM     68  F15 UNL A   1      41.867  24.263  27.034  1.00  0.00    +0.000 F 
ATOM     58  C41 UNL A   1      43.753  25.290  25.984  1.00  0.00    +0.000 C 
ATOM     59  C42 UNL A   1      44.899  25.067  25.200  1.00  0.00    +0.000 C 
ATOM     60  F11 UNL A   1      45.745  26.075  24.939  1.00  0.00    +0.000 F 
ATOM     61  C43 UNL A   1      45.238  23.789  24.741  1.00  0.00    +0.000 C 
ATOM     62  F12 UNL A   1      46.377  23.604  24.057  1.00  0.00    +0.000 F 
ATOM     63  C44 UNL A   1      44.437  22.701  25.046  1.00  0.00    +0.000 C 
ATOM     64  F13 UNL A   1      44.799  21.466  24.669  1.00  0.00    +0.000 F 
ENDBRANCH   57   58
TORSDOF 19
ENDMDL
MODEL 3
REMARK VINA RESULT:     -11.8      3.663      9.069
ROOT
ATOM     21  C17 UNL A   1      40.872  28.231  28.493  1.00  0.00    +0.000 C 
ATOM     22  C18 UNL A   1      41.963  29.122  28.011  1.00  0.00    +0.000 C 
ATOM     23  N3  UNL A   1      42.915  29.653  28.707  1.00  0.00    +0.000 N 
ATOM     24  C19 UNL A   1      43.673  30.402  27.812  1.00  0.00    +0.000 C 
ATOM     25  C20 UNL A   1      44.477  31.415  28.239  1.00  0.00    +0.000 C 
ATOM     37  C27 UNL A   1      44.782  31.282  29.640  1.00  0.00    +0.000 C 
ATOM     38  C28 UNL A   1      45.483  30.370  30.402  1.00  0.00    +0.000 C 
ATOM     39  C29 UNL A   1      44.770  30.293  31.635  1.00  0.00    +0.000 C 
ATOM     40  C30 UNL A   1      43.712  31.199  31.575  1.00  0.00    +0.000 C 
ATOM     41  N4  UNL A   1      44.040  32.018  30.528  1.00  0.00    +0.000 N 
ATOM     42  C31 UNL A   1      42.469  31.298  32.301  1.00  0.00    +0.000 C 
ATOM     54  C38 UNL A   1      41.370  31.983  31.872  1.00  0.00    +0.000 C 
ATOM     55  N5  UNL A   1      40.110  31.682  32.366  1.00  0.00    +0.000 N 
ATOM     56  C39 UNL A   1      39.292  32.033  31.414  1.00  0.00    +0.000 C 
ATOM     57  C40 UNL A   1      38.083  31.252  31.048  1.00  0.00    +0.000 C 
ATOM     69  C47 UNL A   1      38.520  30.081  30.517  1.00  0.00    +0.000 C 
ATOM     70  C48 UNL A   1      37.838  28.817  30.338  1.00  0.00    +0.000 C 
ATOM     71  C49 UNL A   1      38.676  27.957  29.722  1.00  0.00    +0.000 C 
ATOM     72  C50 UNL A   1      39.896  28.660  29.322  1.00  0.00    +0.000 C 
ATOM     73  N6  UNL A   1      39.786  29.894  29.928  1.00  0.00    +0.000 N 
ATOM     74  C51 UNL A   1      39.832  32.946  30.420  1.00  0.00    +0.000 C 
ATOM     75  C52 UNL A   1      41.131  32.816  30.697  1.00  0.00    +0.000 C 
ATOM     76  C53 UNL A   1      43.218  30.044  26.494  1.00  0.00    +0.000 C 
ATOM     77  C54 UNL A   1      42.105  29.313  26.560  1.00  0.00    +0.000 C 
ATOM    117  H22 UNL A   1      46.338  29.857  30.139  1.00  0.00    +0.000 H 
ATOM    118  H23 UNL A   1      44.997  29.675  32.430  1.00  0.00    +0.000 H 
ATOM    119  H24 UNL A   1      43.789  32.965  30.430  1.00  0.00    +0.000 H 
ATOM    120  H25 UNL A   1      36.871  28.608  30.634  1.00  0.00    +0.000 H 
ATOM    121  H26 UNL A   1      38.485  26.956  29.556  1.00  0.00    +0.000 H 
ATOM    122  H27 UNL A   1      40.508  30.564  29.946  1.00  0.00    +0.000 H 
ATOM    123  H28 UNL A   1      39.353  33.525  29.711  1.00  0.00    +0.000 H 
ATOM    124  H29 UNL A   1      41.883  33.254  30.142  1.00  0.00    +0.000 H 
ATOM    125  H30 UNL A   1      43.691  30.316  25.617  1.00  0.00    +0.000 H 
ATOM    126  H31 UNL A   1      41.503  28.971  25.795  1.00  0.00    +0.000 H 
ENDROOT
BRANCH   21   20
ATOM     78  C55 UNL A   1      40.201  26.499  26.836  1.00  0.00    +0.000 C 
ATOM     79  C56 UNL A   1      40.251  25.178  26.413  1.00  0.00    +0.000 C 
ATOM     17  C13 UNL A   1      41.044  24.226  27.083  1.00  0.00    +0.000 C 
ATOM     18  C14 UNL A   1      41.888  24.662  28.101  1.00  0.00    +0.000 C 
ATOM     19  C15 UNL A   1      41.819  25.975  28.552  1.00  0.00    +0.000 C 
ATOM    115  H20 UNL A   1      42.568  24.009  28.523  1.00  0.00    +0.000 H 
ATOM    116  H21 UNL A   1      42.425  26.286  29.327  1.00  0.00    +0.000 H 
ATOM     20  C16 UNL A   1      40.930  26.875  27.957  1.00  0.00    +0.000 C 
ATOM    127  H32 UNL A   1      39.630  27.192  26.327  1.00  0.00    +0.000 H 
ATOM    128  H33 UNL A   1      39.695  24.888  25.593  1.00  0.00    +0.000 H 
BRANCH   17   15
ATOM     15  C12 UNL A   1      40.818  22.808  26.691  1.00  0.00    +0.000 C 
ATOM     16  O2  UNL A   1      41.741  22.190  26.156  1.00  0.00    +0.000 O 
BRANCH   15   14
ATOM    114  H19 UNL A   1      39.512  21.720  27.680  1.00  0.00    +0.000 H 
ATOM     14  N2  UNL A   1      39.629  22.143  26.799  1.00  0.00    +0.000 N 
BRANCH   14   13
ATOM    113  H18 UNL A   1      37.774  21.364  26.476  1.00  0.00    +0.000 H 
ATOM     13  C11 UNL A   1      38.501  21.916  25.919  1.00  0.00    +0.000 C 
ATOM    112  H17 UNL A   1      38.847  21.381  25.059  1.00  0.00    +0.000 H 
BRANCH   13   12
ATOM     12  C10 UNL A   1      37.825  23.204  25.447  1.00  0.00    +0.000 C 
ATOM    110  H15 UNL A   1      38.402  24.034  25.797  1.00  0.00    +0.000 H 
ATOM    111  H16 UNL A   1      37.778  23.155  24.380  1.00  0.00    +0.000 H 
BRANCH   12   11
ATOM     11  C9  UNL A   1      36.385  23.373  25.946  1.00  0.00    +0.000 C 
ATOM    108  H13 UNL A   1      36.400  24.040  26.781  1.00  0.00    +0.000 H 
ATOM    109  H14 UNL A   1      35.823  23.742  25.115  1.00  0.00    +0.000 H 
BRANCH   11   10
ATOM     10  C8  UNL A   1      35.697  22.076  26.386  1.00  0.00    +0.000 C 
ATOM    107  H12 UNL A   1      36.347  21.616  27.100  1.00  0.00    +0.000 H 
ATOM    106  H11 UNL A   1      35.533  21.473  25.518  1.00  0.00    +0.000 H 
BRANCH   10    9
ATOM      9  C7  UNL A   1      34.350  22.272  27.092  1.00  0.00    +0.000 C 
ATOM    105  H10 UNL A   1      34.122  23.316  27.057  1.00  0.00    +0.000 H 
ATOM    104  H9  UNL A   1      34.437  21.913  28.097  1.00  0.00    +0.000 H 
BRANCH    9    8
ATOM    102  H7  UNL A   1      33.578  20.650  25.943  1.00  0.00    +0.000 H 
ATOM    103  H8  UNL A   1      32.470  21.285  27.157  1.00  0.00    +0.000 H 
ATOM      8  C6  UNL A   1      33.197  21.533  26.412  1.00  0.00    +0.000 C 
BRANCH    8    7
ATOM    101  H6  UNL A   1      31.679  22.730  25.654  1.00  0.00    +0.000 H 
ATOM      7  N1  UNL A   1      32.558  22.360  25.408  1.00  0.00    +0.000 N 
BRANCH    7    5
ATOM      5  C5  UNL A   1      33.017  22.693  24.167  1.00  0.00    +0.000 C 
ATOM      6  O1  UNL A   1      33.079  21.811  23.308  1.00  0.00    +0.000 O 
BRANCH    5    4
ATOM    100  H5  UNL A   1      33.670  24.181  22.834  1.00  0.00    +0.000 H 
ATOM     99  H4  UNL A   1      34.394  24.278  24.455  1.00  0.00    +0.000 H 
ATOM      4  C4  UNL A   1      33.502  24.109  23.888  1.00  0.00    +0.000 C 
BRANCH    4    3
ATOM    129  H34 UNL A   1      34.787  26.196  25.696  1.00  0.00    +0.000 H 
ATOM      2  C2  UNL A   1      31.169  25.241  23.863  1.00  0.00    +0.000 C 
ATOM      3  C3  UNL A   1      32.502  25.172  24.247  1.00  0.00    +0.000 C 
ATOM    132  H37 UNL A   1      30.610  28.613  26.244  1.00  0.00    +0.000 H 
ATOM    130  H35 UNL A   1      34.710  28.198  27.059  1.00  0.00    +0.000 H 
ATOM    131  H36 UNL A   1      32.628  29.377  27.355  1.00  0.00    +0.000 H 
ATOM     80  C57 UNL A   1      32.752  26.289  25.091  1.00  0.00    +0.000 C 
ATOM     81  C58 UNL A   1      33.905  26.724  25.783  1.00  0.00    +0.000 C 
ATOM     82  C59 UNL A   1      33.857  27.864  26.585  1.00  0.00    +0.000 C 
ATOM     83  C60 UNL A   1      32.663  28.545  26.744  1.00  0.00    +0.000 C 
ATOM     84  C61 UNL A   1      31.504  28.121  26.088  1.00  0.00    +0.000 C 
ATOM     85  C62 UNL A   1      31.562  27.016  25.212  1.00  0.00    +0.000 C 
ATOM     86  N7  UNL A   1      30.622  26.443  24.339  1.00  0.00    +0.000 N 
BRANCH    2    1
ATOM      1  C1  UNL A   1      30.387  24.267  23.035  1.00  0.00    +0.000 C 
ATOM     98  H3  UNL A   1      30.962  23.987  22.178  1.00  0.00    +0.000 H 
ATOM     97  H2  UNL A   1      30.169  23.398  23.618  1.00  0.00    +0.000 H 
ATOM     96  H1  UNL A   1      29.473  24.724  22.718  1.00  0.00    +0.000 H 
ENDBRANCH    2    1
BRANCH   86   87
ATOM     87  C63 UNL A   1      29.344  26.962  23.970  1.00  0.00    +0.000 C 
ATOM     88  O3  UNL A   1      28.334  26.383  24.354  1.00  0.00    +0.000 O 
BRANCH   87   89
ATOM    133  H38 UNL A   1      31.079  28.362  22.421  1.00  0.00    +0.000 H 
ATOM    134  H39 UNL A   1      30.630  30.439  21.230  1.00  0.00    +0.000 H 
ATOM    135  H40 UNL A   1      26.577  30.213  22.344  1.00  0.00    +0.000 H 
ATOM    136  H41 UNL A   1      27.030  28.166  23.577  1.00  0.00    +0.000 H 
ATOM     89  C64 UNL A   1      29.103  28.162  23.152  1.00  0.00    +0.000 C 
ATOM     90  C65 UNL A   1      30.134  28.776  22.435  1.00  0.00    +0.000 C 
ATOM     91  C66 UNL A   1      29.870  29.958  21.737  1.00  0.00    +0.000 C 
ATOM     92  C67 UNL A   1      28.577  30.486  21.726  1.00  0.00    +0.000 C 
ATOM     93 Cl1  UNL A   1      28.267  31.966  20.905  1.00  0.00    +0.000 Cl
ATOM     94  C68 UNL A   1      27.536  29.832  22.384  1.00  0.00    +0.000 C 
ATOM     95  C69 UNL A   1      27.796  28.663  23.095  1.00  0.00    +0.000 C 
ENDBRANCH   87   89
ENDBRANCH   86   87
ENDBRANCH    4    3
ENDBRANCH    5    4
ENDBRANCH    7    5
ENDBRANCH    8    7
ENDBRANCH    9    8
ENDBRANCH   10    9
ENDBRANCH   11   10
ENDBRANCH   12   11
ENDBRANCH   13   12
ENDBRANCH   14   13
ENDBRANCH   15   14
ENDBRANCH   17   15
ENDBRANCH   21   20
BRANCH   25   26
ATOM     33  C25 UNL A   1      44.340  35.140  27.295  1.00  0.00    +0.000 C 
ATOM     34  F4  UNL A   1      43.605  36.218  27.602  1.00  0.00    +0.000 F 
ATOM     35  C26 UNL A   1      43.931  33.884  27.741  1.00  0.00    +0.000 C 
ATOM     36  F5  UNL A   1      42.839  33.884  28.513  1.00  0.00    +0.000 F 
ATOM     26  C21 UNL A   1      44.679  32.712  27.493  1.00  0.00    +0.000 C 
ATOM     27  C22 UNL A   1      45.853  32.894  26.733  1.00  0.00    +0.000 C 
ATOM     28  F1  UNL A   1      46.652  31.854  26.447  1.00  0.00    +0.000 F 
ATOM     29  C23 UNL A   1      46.286  34.161  26.331  1.00  0.00    +0.000 C 
ATOM     30  F2  UNL A   1      47.473  34.298  25.724  1.00  0.00    +0.000 F 
ATOM     31  C24 UNL A   1      45.533  35.284  26.621  1.00  0.00    +0.000 C 
ATOM     32  F3  UNL A   1      45.977  36.505  26.295  1.00  0.00    +0.000 F 
ENDBRANCH   25   26
BRANCH   42   43
ATOM     43  C32 UNL A   1      42.308  30.395  33.493  1.00  0.00    +0.000 C 
ATOM     44  C33 UNL A   1      42.422  30.832  34.825  1.00  0.00    +0.000 C 
ATOM     45  F6  UNL A   1      42.744  32.102  35.107  1.00  0.00    +0.000 F 
ATOM     46  C34 UNL A   1      42.144  29.976  35.891  1.00  0.00    +0.000 C 
ATOM     47  F7  UNL A   1      42.263  30.412  37.154  1.00  0.00    +0.000 F 
ATOM     48  C35 UNL A   1      41.702  28.685  35.648  1.00  0.00    +0.000 C 
ATOM     49  F8  UNL A   1      41.384  27.878  36.670  1.00  0.00    +0.000 F 
ATOM     50  C36 UNL A   1      41.559  28.242  34.343  1.00  0.00    +0.000 C 
ATOM     51  F9  UNL A   1      41.083  27.012  34.102  1.00  0.00    +0.000 F 
ATOM     52  C37 UNL A   1      41.872  29.082  33.279  1.00  0.00    +0.000 C 
ATOM     53  F10 UNL A   1      41.694  28.630  32.028  1.00  0.00    +0.000 F 
ENDBRANCH   42   43
BRANCH   57   58
ATOM     65  C45 UNL A   1      35.325  33.478  29.697  1.00  0.00    +0.000 C 
ATOM     66  F14 UNL A   1      35.076  34.177  28.580  1.00  0.00    +0.000 F 
ATOM     67  C46 UNL A   1      36.404  32.594  29.733  1.00  0.00    +0.000 C 
ATOM     68  F15 UNL A   1      37.166  32.515  28.632  1.00  0.00    +0.000 F 
ATOM     58  C41 UNL A   1      36.753  31.892  30.903  1.00  0.00    +0.000 C 
ATOM     59  C42 UNL A   1      35.927  32.099  32.023  1.00  0.00    +0.000 C 
ATOM     60  F11 UNL A   1      36.211  31.500  33.189  1.00  0.00    +0.000 F 
ATOM     61  C43 UNL A   1      34.847  32.987  31.986  1.00  0.00    +0.000 C 
ATOM     62  F12 UNL A   1      34.126  33.212  33.095  1.00  0.00    +0.000 F 
ATOM     63  C44 UNL A   1      34.556  33.687  30.827  1.00  0.00    +0.000 C 
ATOM     64  F13 UNL A   1      33.566  34.591  30.811  1.00  0.00    +0.000 F 
ENDBRANCH   57   58
TORSDOF 19
ENDMDL
MODEL 4
REMARK VINA RESULT:     -11.7      1.331      2.220
ROOT
ATOM     21  C17 UNL A   1      39.947  28.755  29.013  1.00  0.00    +0.000 C 
ATOM     22  C18 UNL A   1      40.324  28.601  30.446  1.00  0.00    +0.000 C 
ATOM     23  N3  UNL A   1      41.332  29.130  31.059  1.00  0.00    +0.000 N 
ATOM     24  C19 UNL A   1      41.256  28.687  32.376  1.00  0.00    +0.000 C 
ATOM     25  C20 UNL A   1      42.349  28.686  33.187  1.00  0.00    +0.000 C 
ATOM     37  C27 UNL A   1      43.363  29.583  32.696  1.00  0.00    +0.000 C 
ATOM     38  C28 UNL A   1      43.456  30.950  32.528  1.00  0.00    +0.000 C 
ATOM     39  C29 UNL A   1      44.224  31.125  31.339  1.00  0.00    +0.000 C 
ATOM     40  C30 UNL A   1      44.600  29.862  30.883  1.00  0.00    +0.000 C 
ATOM     41  N4  UNL A   1      44.390  29.047  31.963  1.00  0.00    +0.000 N 
ATOM     42  C31 UNL A   1      45.021  29.376  29.591  1.00  0.00    +0.000 C 
ATOM     54  C38 UNL A   1      44.971  28.071  29.197  1.00  0.00    +0.000 C 
ATOM     55  N5  UNL A   1      44.957  27.737  27.852  1.00  0.00    +0.000 N 
ATOM     56  C39 UNL A   1      44.343  26.588  27.805  1.00  0.00    +0.000 C 
ATOM     57  C40 UNL A   1      43.383  26.219  26.735  1.00  0.00    +0.000 C 
ATOM     69  C47 UNL A   1      42.299  27.021  26.888  1.00  0.00    +0.000 C 
ATOM     70  C48 UNL A   1      41.249  27.372  25.956  1.00  0.00    +0.000 C 
ATOM     71  C49 UNL A   1      40.361  28.170  26.586  1.00  0.00    +0.000 C 
ATOM     72  C50 UNL A   1      40.697  28.256  28.008  1.00  0.00    +0.000 C 
ATOM     73  N6  UNL A   1      41.928  27.641  28.099  1.00  0.00    +0.000 N 
ATOM     74  C51 UNL A   1      44.266  25.861  29.062  1.00  0.00    +0.000 C 
ATOM     75  C52 UNL A   1      44.587  26.849  29.899  1.00  0.00    +0.000 C 
ATOM     76  C53 UNL A   1      39.967  28.063  32.522  1.00  0.00    +0.000 C 
ATOM     77  C54 UNL A   1      39.378  27.911  31.336  1.00  0.00    +0.000 C 
ATOM    117  H22 UNL A   1      43.059  31.686  33.132  1.00  0.00    +0.000 H 
ATOM    118  H23 UNL A   1      44.459  32.027  30.895  1.00  0.00    +0.000 H 
ATOM    119  H24 UNL A   1      44.886  28.224  32.175  1.00  0.00    +0.000 H 
ATOM    120  H25 UNL A   1      41.189  27.064  24.973  1.00  0.00    +0.000 H 
ATOM    121  H26 UNL A   1      39.564  28.647  26.134  1.00  0.00    +0.000 H 
ATOM    122  H27 UNL A   1      42.482  27.636  28.913  1.00  0.00    +0.000 H 
ATOM    123  H28 UNL A   1      44.032  24.873  29.251  1.00  0.00    +0.000 H 
ATOM    124  H29 UNL A   1      44.566  26.761  30.927  1.00  0.00    +0.000 H 
ATOM    125  H30 UNL A   1      39.555  27.773  33.423  1.00  0.00    +0.000 H 
ATOM    126  H31 UNL A   1      38.492  27.435  31.103  1.00  0.00    +0.000 H 
ENDROOT
BRANCH   21   20
ATOM     78  C55 UNL A   1      37.513  28.767  28.497  1.00  0.00    +0.000 C 
ATOM     79  C56 UNL A   1      36.355  29.492  28.245  1.00  0.00    +0.000 C 
ATOM     17  C13 UNL A   1      36.344  30.898  28.318  1.00  0.00    +0.000 C 
ATOM     18  C14 UNL A   1      37.485  31.549  28.783  1.00  0.00    +0.000 C 
ATOM     19  C15 UNL A   1      38.656  30.834  29.004  1.00  0.00    +0.000 C 
ATOM    115  H20 UNL A   1      37.461  32.565  28.963  1.00  0.00    +0.000 H 
ATOM    116  H21 UNL A   1      39.507  31.325  29.318  1.00  0.00    +0.000 H 
ATOM     20  C16 UNL A   1      38.682  29.451  28.802  1.00  0.00    +0.000 C 
ATOM    127  H32 UNL A   1      37.505  27.736  28.458  1.00  0.00    +0.000 H 
ATOM    128  H33 UNL A   1      35.488  28.990  27.999  1.00  0.00    +0.000 H 
BRANCH   17   15
ATOM     15  C12 UNL A   1      35.123  31.562  27.787  1.00  0.00    +0.000 C 
ATOM     16  O2  UNL A   1      34.906  32.735  28.098  1.00  0.00    +0.000 O 
BRANCH   15   14
ATOM    114  H19 UNL A   1      34.472  30.726  26.129  1.00  0.00    +0.000 H 
ATOM     14  N2  UNL A   1      34.159  30.949  27.036  1.00  0.00    +0.000 N 
BRANCH   14   13
ATOM    113  H18 UNL A   1      32.218  30.881  26.420  1.00  0.00    +0.000 H 
ATOM     13  C11 UNL A   1      32.785  30.550  27.264  1.00  0.00    +0.000 C 
ATOM    112  H17 UNL A   1      32.453  30.996  28.179  1.00  0.00    +0.000 H 
BRANCH   13   12
ATOM     12  C10 UNL A   1      32.597  29.036  27.368  1.00  0.00    +0.000 C 
ATOM    110  H15 UNL A   1      32.540  28.775  28.404  1.00  0.00    +0.000 H 
ATOM    111  H16 UNL A   1      31.701  28.799  26.834  1.00  0.00    +0.000 H 
BRANCH   12   11
ATOM     11  C9  UNL A   1      33.724  28.220  26.726  1.00  0.00    +0.000 C 
ATOM    108  H13 UNL A   1      34.534  28.885  26.511  1.00  0.00    +0.000 H 
ATOM    109  H14 UNL A   1      33.977  27.455  27.429  1.00  0.00    +0.000 H 
BRANCH   11   10
ATOM     10  C8  UNL A   1      33.343  27.500  25.428  1.00  0.00    +0.000 C 
ATOM    107  H12 UNL A   1      32.274  27.494  25.388  1.00  0.00    +0.000 H 
ATOM    106  H11 UNL A   1      33.769  26.519  25.453  1.00  0.00    +0.000 H 
BRANCH   10    9
ATOM      9  C7  UNL A   1      33.820  28.193  24.146  1.00  0.00    +0.000 C 
ATOM    105  H10 UNL A   1      34.112  27.427  23.460  1.00  0.00    +0.000 H 
ATOM    104  H9  UNL A   1      34.634  28.843  24.393  1.00  0.00    +0.000 H 
BRANCH    9    8
ATOM    102  H7  UNL A   1      32.953  30.058  23.584  1.00  0.00    +0.000 H 
ATOM    103  H8  UNL A   1      32.701  28.753  22.429  1.00  0.00    +0.000 H 
ATOM      8  C6  UNL A   1      32.728  29.020  23.465  1.00  0.00    +0.000 C 
BRANCH    8    7
ATOM    101  H6  UNL A   1      31.352  28.874  25.013  1.00  0.00    +0.000 H 
ATOM      7  N1  UNL A   1      31.425  28.751  24.039  1.00  0.00    +0.000 N 
BRANCH    7    5
ATOM      5  C5  UNL A   1      30.286  28.349  23.402  1.00  0.00    +0.000 C 
ATOM      6  O1  UNL A   1      29.765  29.118  22.591  1.00  0.00    +0.000 O 
BRANCH    5    4
ATOM    100  H5  UNL A   1      28.935  26.796  22.983  1.00  0.00    +0.000 H 
ATOM     99  H4  UNL A   1      29.202  27.090  24.716  1.00  0.00    +0.000 H 
ATOM      4  C4  UNL A   1      29.652  27.010  23.748  1.00  0.00    +0.000 C 
BRANCH    4    3
ATOM    129  H34 UNL A   1      31.174  26.873  21.114  1.00  0.00    +0.000 H 
ATOM      2  C2  UNL A   1      30.838  24.957  24.799  1.00  0.00    +0.000 C 
ATOM      3  C3  UNL A   1      30.627  25.866  23.771  1.00  0.00    +0.000 C 
ATOM    132  H37 UNL A   1      33.528  22.834  22.431  1.00  0.00    +0.000 H 
ATOM    130  H35 UNL A   1      32.774  25.852  19.608  1.00  0.00    +0.000 H 
ATOM    131  H36 UNL A   1      33.917  23.830  20.252  1.00  0.00    +0.000 H 
ATOM     80  C57 UNL A   1      31.488  25.496  22.702  1.00  0.00    +0.000 C 
ATOM     81  C58 UNL A   1      31.695  26.034  21.411  1.00  0.00    +0.000 C 
ATOM     82  C59 UNL A   1      32.600  25.435  20.535  1.00  0.00    +0.000 C 
ATOM     83  C60 UNL A   1      33.263  24.281  20.911  1.00  0.00    +0.000 C 
ATOM     84  C61 UNL A   1      33.058  23.716  22.174  1.00  0.00    +0.000 C 
ATOM     85  C62 UNL A   1      32.205  24.360  23.096  1.00  0.00    +0.000 C 
ATOM     86  N7  UNL A   1      31.903  24.113  24.445  1.00  0.00    +0.000 N 
BRANCH    2    1
ATOM      1  C1  UNL A   1      30.130  24.861  26.116  1.00  0.00    +0.000 C 
ATOM     98  H3  UNL A   1      30.626  24.144  26.735  1.00  0.00    +0.000 H 
ATOM     97  H2  UNL A   1      30.141  25.816  26.597  1.00  0.00    +0.000 H 
ATOM     96  H1  UNL A   1      29.118  24.553  25.954  1.00  0.00    +0.000 H 
ENDBRANCH    2    1
BRANCH   86   87
ATOM     87  C63 UNL A   1      32.543  23.192  25.329  1.00  0.00    +0.000 C 
ATOM     88  O3  UNL A   1      31.858  22.545  26.112  1.00  0.00    +0.000 O 
BRANCH   87   89
ATOM    133  H38 UNL A   1      33.903  20.919  24.733  1.00  0.00    +0.000 H 
ATOM    134  H39 UNL A   1      36.286  20.517  25.038  1.00  0.00    +0.000 H 
ATOM    135  H40 UNL A   1      36.825  24.527  26.200  1.00  0.00    +0.000 H 
ATOM    136  H41 UNL A   1      34.438  24.921  25.947  1.00  0.00    +0.000 H 
ATOM     89  C64 UNL A   1      33.990  22.927  25.399  1.00  0.00    +0.000 C 
ATOM     90  C65 UNL A   1      34.517  21.672  25.081  1.00  0.00    +0.000 C 
ATOM     91  C66 UNL A   1      35.889  21.448  25.238  1.00  0.00    +0.000 C 
ATOM     92  C67 UNL A   1      36.719  22.487  25.666  1.00  0.00    +0.000 C 
ATOM     93 Cl1  UNL A   1      38.397  22.194  25.905  1.00  0.00    +0.000 Cl
ATOM     94  C68 UNL A   1      36.199  23.757  25.915  1.00  0.00    +0.000 C 
ATOM     95  C69 UNL A   1      34.830  23.982  25.775  1.00  0.00    +0.000 C 
ENDBRANCH   87   89
ENDBRANCH   86   87
ENDBRANCH    4    3
ENDBRANCH    5    4
ENDBRANCH    7    5
ENDBRANCH    8    7
ENDBRANCH    9    8
ENDBRANCH   10    9
ENDBRANCH   11   10
ENDBRANCH   12   11
ENDBRANCH   13   12
ENDBRANCH   14   13
ENDBRANCH   15   14
ENDBRANCH   17   15
ENDBRANCH   21   20
BRANCH   25   26
ATOM     33  C25 UNL A   1      42.143  26.465  36.319  1.00  0.00    +0.000 C 
ATOM     34  F4  UNL A   1      41.592  26.514  37.540  1.00  0.00    +0.000 F 
ATOM     35  C26 UNL A   1      42.130  27.605  35.516  1.00  0.00    +0.000 C 
ATOM     36  F5  UNL A   1      41.490  28.657  36.036  1.00  0.00    +0.000 F 
ATOM     26  C21 UNL A   1      42.653  27.612  34.204  1.00  0.00    +0.000 C 
ATOM     27  C22 UNL A   1      43.220  26.395  33.773  1.00  0.00    +0.000 C 
ATOM     28  F1  UNL A   1      43.735  26.278  32.539  1.00  0.00    +0.000 F 
ATOM     29  C23 UNL A   1      43.186  25.241  34.562  1.00  0.00    +0.000 C 
ATOM     30  F2  UNL A   1      43.621  24.077  34.059  1.00  0.00    +0.000 F 
ATOM     31  C24 UNL A   1      42.639  25.275  35.831  1.00  0.00    +0.000 C 
ATOM     32  F3  UNL A   1      42.545  24.158  36.563  1.00  0.00    +0.000 F 
ENDBRANCH   25   26
BRANCH   42   43
ATOM     43  C32 UNL A   1      45.312  30.413  28.540  1.00  0.00    +0.000 C 
ATOM     44  C33 UNL A   1      44.337  30.948  27.680  1.00  0.00    +0.000 C 
ATOM     45  F6  UNL A   1      43.071  30.510  27.718  1.00  0.00    +0.000 F 
ATOM     46  C34 UNL A   1      44.641  31.993  26.807  1.00  0.00    +0.000 C 
ATOM     47  F7  UNL A   1      43.697  32.487  25.992  1.00  0.00    +0.000 F 
ATOM     48  C35 UNL A   1      45.909  32.553  26.809  1.00  0.00    +0.000 C 
ATOM     49  F8  UNL A   1      46.188  33.591  26.008  1.00  0.00    +0.000 F 
ATOM     50  C36 UNL A   1      46.878  32.057  27.666  1.00  0.00    +0.000 C 
ATOM     51  F9  UNL A   1      48.090  32.627  27.708  1.00  0.00    +0.000 F 
ATOM     52  C37 UNL A   1      46.588  30.990  28.511  1.00  0.00    +0.000 C 
ATOM     53  F10 UNL A   1      47.541  30.553  29.348  1.00  0.00    +0.000 F 
ENDBRANCH   42   43
BRANCH   57   58
ATOM     65  C45 UNL A   1      42.998  22.530  25.940  1.00  0.00    +0.000 C 
ATOM     66  F14 UNL A   1      42.260  21.498  26.370  1.00  0.00    +0.000 F 
ATOM     67  C46 UNL A   1      42.694  23.823  26.367  1.00  0.00    +0.000 C 
ATOM     68  F15 UNL A   1      41.674  23.958  27.226  1.00  0.00    +0.000 F 
ATOM     58  C41 UNL A   1      43.484  24.932  26.003  1.00  0.00    +0.000 C 
ATOM     59  C42 UNL A   1      44.571  24.670  25.152  1.00  0.00    +0.000 C 
ATOM     60  F11 UNL A   1      45.398  25.663  24.789  1.00  0.00    +0.000 F 
ATOM     61  C43 UNL A   1      44.877  23.372  24.727  1.00  0.00    +0.000 C 
ATOM     62  F12 UNL A   1      45.965  23.153  23.974  1.00  0.00    +0.000 F 
ATOM     63  C44 UNL A   1      44.098  22.302  25.134  1.00  0.00    +0.000 C 
ATOM     64  F13 UNL A   1      44.432  21.050  24.786  1.00  0.00    +0.000 F 
ENDBRANCH   57   58
TORSDOF 19
ENDMDL
MODEL 5
REMARK VINA RESULT:     -11.4      3.148      8.195
ROOT
ATOM     21  C17 UNL A   1      40.645  27.768  28.675  1.00  0.00    +0.000 C 
ATOM     22  C18 UNL A   1      41.828  28.522  28.175  1.00  0.00    +0.000 C 
ATOM     23  N3  UNL A   1      42.850  28.929  28.854  1.00  0.00    +0.000 N 
ATOM     24  C19 UNL A   1      43.677  29.585  27.946  1.00  0.00    +0.000 C 
ATOM     25  C20 UNL A   1      44.606  30.490  28.360  1.00  0.00    +0.000 C 
ATOM     37  C27 UNL A   1      44.919  30.314  29.754  1.00  0.00    +0.000 C 
ATOM     38  C28 UNL A   1      45.518  29.319  30.501  1.00  0.00    +0.000 C 
ATOM     39  C29 UNL A   1      44.825  29.322  31.747  1.00  0.00    +0.000 C 
ATOM     40  C30 UNL A   1      43.884  30.351  31.710  1.00  0.00    +0.000 C 
ATOM     41  N4  UNL A   1      44.290  31.130  30.659  1.00  0.00    +0.000 N 
ATOM     42  C31 UNL A   1      42.677  30.597  32.460  1.00  0.00    +0.000 C 
ATOM     54  C38 UNL A   1      41.661  31.413  32.055  1.00  0.00    +0.000 C 
ATOM     55  N5  UNL A   1      40.384  31.265  32.572  1.00  0.00    +0.000 N 
ATOM     56  C39 UNL A   1      39.596  31.718  31.637  1.00  0.00    +0.000 C 
ATOM     57  C40 UNL A   1      38.295  31.092  31.293  1.00  0.00    +0.000 C 
ATOM     69  C47 UNL A   1      38.575  29.880  30.750  1.00  0.00    +0.000 C 
ATOM     70  C48 UNL A   1      37.741  28.709  30.581  1.00  0.00    +0.000 C 
ATOM     71  C49 UNL A   1      38.456  27.757  29.946  1.00  0.00    +0.000 C 
ATOM     72  C50 UNL A   1      39.745  28.308  29.524  1.00  0.00    +0.000 C 
ATOM     73  N6  UNL A   1      39.798  29.543  30.136  1.00  0.00    +0.000 N 
ATOM     74  C51 UNL A   1      40.225  32.564  30.636  1.00  0.00    +0.000 C 
ATOM     75  C52 UNL A   1      41.503  32.275  30.887  1.00  0.00    +0.000 C 
ATOM     76  C53 UNL A   1      43.157  29.293  26.636  1.00  0.00    +0.000 C 
ATOM     77  C54 UNL A   1      41.964  28.702  26.721  1.00  0.00    +0.000 C 
ATOM    117  H22 UNL A   1      46.300  28.707  30.219  1.00  0.00    +0.000 H 
ATOM    118  H23 UNL A   1      44.990  28.677  32.535  1.00  0.00    +0.000 H 
ATOM    119  H24 UNL A   1      44.154  32.101  30.569  1.00  0.00    +0.000 H 
ATOM    120  H25 UNL A   1      36.762  28.618  30.895  1.00  0.00    +0.000 H 
ATOM    121  H26 UNL A   1      38.142  26.788  29.781  1.00  0.00    +0.000 H 
ATOM    122  H27 UNL A   1      40.596  30.120  30.142  1.00  0.00    +0.000 H 
ATOM    123  H28 UNL A   1      39.807  33.201  29.939  1.00  0.00    +0.000 H 
ATOM    124  H29 UNL A   1      42.292  32.622  30.319  1.00  0.00    +0.000 H 
ATOM    125  H30 UNL A   1      43.642  29.510  25.751  1.00  0.00    +0.000 H 
ATOM    126  H31 UNL A   1      41.310  28.441  25.967  1.00  0.00    +0.000 H 
ENDROOT
BRANCH   21   20
ATOM     78  C55 UNL A   1      39.569  26.091  27.184  1.00  0.00    +0.000 C 
ATOM     79  C56 UNL A   1      39.467  24.775  26.754  1.00  0.00    +0.000 C 
ATOM     17  C13 UNL A   1      40.333  23.778  27.246  1.00  0.00    +0.000 C 
ATOM     18  C14 UNL A   1      41.387  24.161  28.072  1.00  0.00    +0.000 C 
ATOM     19  C15 UNL A   1      41.474  25.470  28.533  1.00  0.00    +0.000 C 
ATOM    115  H20 UNL A   1      42.105  23.472  28.345  1.00  0.00    +0.000 H 
ATOM    116  H21 UNL A   1      42.239  25.741  29.169  1.00  0.00    +0.000 H 
ATOM     20  C16 UNL A   1      40.528  26.418  28.133  1.00  0.00    +0.000 C 
ATOM    127  H32 UNL A   1      38.941  26.817  26.803  1.00  0.00    +0.000 H 
ATOM    128  H33 UNL A   1      38.744  24.523  26.064  1.00  0.00    +0.000 H 
BRANCH   17   15
ATOM     15  C12 UNL A   1      39.964  22.378  26.904  1.00  0.00    +0.000 C 
ATOM     16  O2  UNL A   1      40.490  21.458  27.534  1.00  0.00    +0.000 O 
BRANCH   15   14
ATOM    114  H19 UNL A   1      39.629  21.837  25.043  1.00  0.00    +0.000 H 
ATOM     14  N2  UNL A   1      39.138  22.011  25.878  1.00  0.00    +0.000 N 
BRANCH   14   13
ATOM    113  H18 UNL A   1      37.284  21.886  26.714  1.00  0.00    +0.000 H 
ATOM     13  C11 UNL A   1      37.710  21.818  25.735  1.00  0.00    +0.000 C 
ATOM    112  H17 UNL A   1      37.542  20.863  25.283  1.00  0.00    +0.000 H 
BRANCH   13   12
ATOM     12  C10 UNL A   1      37.031  22.885  24.874  1.00  0.00    +0.000 C 
ATOM    110  H15 UNL A   1      37.622  23.776  24.917  1.00  0.00    +0.000 H 
ATOM    111  H16 UNL A   1      36.961  22.484  23.885  1.00  0.00    +0.000 H 
BRANCH   12   11
ATOM     11  C9  UNL A   1      35.605  23.231  25.315  1.00  0.00    +0.000 C 
ATOM    108  H13 UNL A   1      34.936  22.542  24.843  1.00  0.00    +0.000 H 
ATOM    109  H14 UNL A   1      35.599  23.166  26.383  1.00  0.00    +0.000 H 
BRANCH   11   10
ATOM     10  C8  UNL A   1      35.146  24.651  24.969  1.00  0.00    +0.000 C 
ATOM    107  H12 UNL A   1      34.619  24.581  24.041  1.00  0.00    +0.000 H 
ATOM    106  H11 UNL A   1      36.012  25.278  24.914  1.00  0.00    +0.000 H 
BRANCH   10    9
ATOM      9  C7  UNL A   1      34.170  25.274  25.974  1.00  0.00    +0.000 C 
ATOM    105  H10 UNL A   1      34.690  25.374  26.902  1.00  0.00    +0.000 H 
ATOM    104  H9  UNL A   1      33.315  24.634  26.058  1.00  0.00    +0.000 H 
BRANCH    9    8
ATOM    102  H7  UNL A   1      32.632  26.723  25.690  1.00  0.00    +0.000 H 
ATOM    103  H8  UNL A   1      34.184  27.387  26.192  1.00  0.00    +0.000 H 
ATOM      8  C6  UNL A   1      33.693  26.669  25.568  1.00  0.00    +0.000 C 
BRANCH    8    7
ATOM    101  H6  UNL A   1      34.952  27.248  24.021  1.00  0.00    +0.000 H 
ATOM      7  N1  UNL A   1      34.025  26.961  24.188  1.00  0.00    +0.000 N 
BRANCH    7    5
ATOM      5  C5  UNL A   1      33.217  26.889  23.090  1.00  0.00    +0.000 C 
ATOM      6  O1  UNL A   1      33.653  27.305  22.013  1.00  0.00    +0.000 O 
BRANCH    5    4
ATOM    100  H5  UNL A   1      31.317  26.513  22.276  1.00  0.00    +0.000 H 
ATOM     99  H4  UNL A   1      31.309  26.911  24.009  1.00  0.00    +0.000 H 
ATOM      4  C4  UNL A   1      31.793  26.369  23.224  1.00  0.00    +0.000 C 
BRANCH    4    3
ATOM    129  H34 UNL A   1      30.269  25.932  25.824  1.00  0.00    +0.000 H 
ATOM      2  C2  UNL A   1      32.249  23.851  22.805  1.00  0.00    +0.000 C 
ATOM      3  C3  UNL A   1      31.713  24.902  23.538  1.00  0.00    +0.000 C 
ATOM    132  H37 UNL A   1      31.035  21.136  25.722  1.00  0.00    +0.000 H 
ATOM    130  H35 UNL A   1      29.387  24.521  27.586  1.00  0.00    +0.000 H 
ATOM    131  H36 UNL A   1      29.796  22.146  27.549  1.00  0.00    +0.000 H 
ATOM     80  C57 UNL A   1      31.091  24.337  24.685  1.00  0.00    +0.000 C 
ATOM     81  C58 UNL A   1      30.407  24.910  25.781  1.00  0.00    +0.000 C 
ATOM     82  C59 UNL A   1      29.917  24.102  26.807  1.00  0.00    +0.000 C 
ATOM     83  C60 UNL A   1      30.144  22.737  26.777  1.00  0.00    +0.000 C 
ATOM     84  C61 UNL A   1      30.838  22.150  25.715  1.00  0.00    +0.000 C 
ATOM     85  C62 UNL A   1      31.266  22.948  24.634  1.00  0.00    +0.000 C 
ATOM     86  N7  UNL A   1      31.861  22.640  23.400  1.00  0.00    +0.000 N 
BRANCH    2    1
ATOM      1  C1  UNL A   1      33.067  23.913  21.551  1.00  0.00    +0.000 C 
ATOM     98  H3  UNL A   1      33.161  22.931  21.138  1.00  0.00    +0.000 H 
ATOM     97  H2  UNL A   1      32.587  24.554  20.844  1.00  0.00    +0.000 H 
ATOM     96  H1  UNL A   1      34.040  24.298  21.780  1.00  0.00    +0.000 H 
ENDBRANCH    2    1
BRANCH   86   87
ATOM     87  C63 UNL A   1      32.044  21.349  22.818  1.00  0.00    +0.000 C 
ATOM     88  O3  UNL A   1      31.568  21.122  21.712  1.00  0.00    +0.000 O 
BRANCH   87   89
ATOM    133  H38 UNL A   1      34.039  21.390  24.659  1.00  0.00    +0.000 H 
ATOM    134  H39 UNL A   1      35.307  19.481  25.486  1.00  0.00    +0.000 H 
ATOM    135  H40 UNL A   1      32.821  16.873  23.308  1.00  0.00    +0.000 H 
ATOM    136  H41 UNL A   1      31.584  18.779  22.439  1.00  0.00    +0.000 H 
ATOM     89  C64 UNL A   1      32.775  20.224  23.425  1.00  0.00    +0.000 C 
ATOM     90  C65 UNL A   1      33.807  20.435  24.344  1.00  0.00    +0.000 C 
ATOM     91  C66 UNL A   1      34.521  19.337  24.832  1.00  0.00    +0.000 C 
ATOM     92  C67 UNL A   1      34.170  18.045  24.434  1.00  0.00    +0.000 C 
ATOM     93 Cl1  UNL A   1      35.082  16.700  25.000  1.00  0.00    +0.000 Cl
ATOM     94  C68 UNL A   1      33.094  17.834  23.572  1.00  0.00    +0.000 C 
ATOM     95  C69 UNL A   1      32.388  18.925  23.069  1.00  0.00    +0.000 C 
ENDBRANCH   87   89
ENDBRANCH   86   87
ENDBRANCH    4    3
ENDBRANCH    5    4
ENDBRANCH    7    5
ENDBRANCH    8    7
ENDBRANCH    9    8
ENDBRANCH   10    9
ENDBRANCH   11   10
ENDBRANCH   12   11
ENDBRANCH   13   12
ENDBRANCH   14   13
ENDBRANCH   15   14
ENDBRANCH   17   15
ENDBRANCH   21   20
BRANCH   25   26
ATOM     33  C25 UNL A   1      44.739  34.189  27.320  1.00  0.00    +0.000 C 
ATOM     34  F4  UNL A   1      44.017  35.303  27.509  1.00  0.00    +0.000 F 
ATOM     35  C26 UNL A   1      44.227  32.963  27.742  1.00  0.00    +0.000 C 
ATOM     36  F5  UNL A   1      43.051  33.027  28.373  1.00  0.00    +0.000 F 
ATOM     26  C21 UNL A   1      44.950  31.757  27.614  1.00  0.00    +0.000 C 
ATOM     27  C22 UNL A   1      46.215  31.873  27.000  1.00  0.00    +0.000 C 
ATOM     28  F1  UNL A   1      46.999  30.796  26.838  1.00  0.00    +0.000 F 
ATOM     29  C23 UNL A   1      46.745  33.111  26.625  1.00  0.00    +0.000 C 
ATOM     30  F2  UNL A   1      48.002  33.185  26.165  1.00  0.00    +0.000 F 
ATOM     31  C24 UNL A   1      46.009  34.270  26.794  1.00  0.00    +0.000 C 
ATOM     32  F3  UNL A   1      46.540  35.463  26.496  1.00  0.00    +0.000 F 
ENDBRANCH   25   26
BRANCH   42   43
ATOM     43  C32 UNL A   1      42.430  29.714  33.653  1.00  0.00    +0.000 C 
ATOM     44  C33 UNL A   1      41.844  28.438  33.572  1.00  0.00    +0.000 C 
ATOM     45  F6  UNL A   1      41.413  27.952  32.400  1.00  0.00    +0.000 F 
ATOM     46  C34 UNL A   1      41.749  27.616  34.695  1.00  0.00    +0.000 C 
ATOM     47  F7  UNL A   1      41.183  26.404  34.597  1.00  0.00    +0.000 F 
ATOM     48  C35 UNL A   1      42.279  28.031  35.907  1.00  0.00    +0.000 C 
ATOM     49  F8  UNL A   1      42.235  27.221  36.974  1.00  0.00    +0.000 F 
ATOM     50  C36 UNL A   1      42.883  29.274  36.003  1.00  0.00    +0.000 C 
ATOM     51  F9  UNL A   1      43.441  29.659  37.159  1.00  0.00    +0.000 F 
ATOM     52  C37 UNL A   1      42.945  30.112  34.893  1.00  0.00    +0.000 C 
ATOM     53  F10 UNL A   1      43.562  31.297  35.015  1.00  0.00    +0.000 F 
ENDBRANCH   42   43
BRANCH   57   58
ATOM     65  C45 UNL A   1      35.801  33.642  30.000  1.00  0.00    +0.000 C 
ATOM     66  F14 UNL A   1      35.617  34.369  28.890  1.00  0.00    +0.000 F 
ATOM     67  C46 UNL A   1      36.766  32.633  30.014  1.00  0.00    +0.000 C 
ATOM     68  F15 UNL A   1      37.489  32.465  28.898  1.00  0.00    +0.000 F 
ATOM     58  C41 UNL A   1      37.050  31.891  31.177  1.00  0.00    +0.000 C 
ATOM     59  C42 UNL A   1      36.279  32.193  32.313  1.00  0.00    +0.000 C 
ATOM     60  F11 UNL A   1      36.512  31.561  33.473  1.00  0.00    +0.000 F 
ATOM     61  C43 UNL A   1      35.315  33.207  32.299  1.00  0.00    +0.000 C 
ATOM     62  F12 UNL A   1      34.650  33.515  33.423  1.00  0.00    +0.000 F 
ATOM     63  C44 UNL A   1      35.088  33.940  31.146  1.00  0.00    +0.000 C 
ATOM     64  F13 UNL A   1      34.216  34.959  31.152  1.00  0.00    +0.000 F 
ENDBRANCH   57   58
TORSDOF 19
ENDMDL
MODEL 6
REMARK VINA RESULT:     -11.3      3.198      8.272
ROOT
ATOM     21  C17 UNL A   1      40.462  27.967  29.207  1.00  0.00    +0.000 C 
ATOM     22  C18 UNL A   1      41.663  28.708  28.731  1.00  0.00    +0.000 C 
ATOM     23  N3  UNL A   1      42.756  28.944  29.382  1.00  0.00    +0.000 N 
ATOM     24  C19 UNL A   1      43.568  29.671  28.516  1.00  0.00    +0.000 C 
ATOM     25  C20 UNL A   1      44.587  30.443  28.984  1.00  0.00    +0.000 C 
ATOM     37  C27 UNL A   1      44.978  30.044  30.311  1.00  0.00    +0.000 C 
ATOM     38  C28 UNL A   1      45.548  28.913  30.860  1.00  0.00    +0.000 C 
ATOM     39  C29 UNL A   1      44.940  28.777  32.143  1.00  0.00    +0.000 C 
ATOM     40  C30 UNL A   1      44.079  29.859  32.324  1.00  0.00    +0.000 C 
ATOM     41  N4  UNL A   1      44.472  30.756  31.367  1.00  0.00    +0.000 N 
ATOM     42  C31 UNL A   1      42.945  30.070  33.192  1.00  0.00    +0.000 C 
ATOM     54  C38 UNL A   1      41.969  31.001  32.984  1.00  0.00    +0.000 C 
ATOM     55  N5  UNL A   1      40.721  30.861  33.571  1.00  0.00    +0.000 N 
ATOM     56  C39 UNL A   1      39.910  31.497  32.773  1.00  0.00    +0.000 C 
ATOM     57  C40 UNL A   1      38.546  31.015  32.442  1.00  0.00    +0.000 C 
ATOM     69  C47 UNL A   1      38.698  29.880  31.713  1.00  0.00    +0.000 C 
ATOM     70  C48 UNL A   1      37.769  28.804  31.442  1.00  0.00    +0.000 C 
ATOM     71  C49 UNL A   1      38.367  27.911  30.626  1.00  0.00    +0.000 C 
ATOM     72  C50 UNL A   1      39.663  28.433  30.190  1.00  0.00    +0.000 C 
ATOM     73  N6  UNL A   1      39.849  29.558  30.966  1.00  0.00    +0.000 N 
ATOM     74  C51 UNL A   1      40.534  32.439  31.857  1.00  0.00    +0.000 C 
ATOM     75  C52 UNL A   1      41.800  32.034  31.967  1.00  0.00    +0.000 C 
ATOM     76  C53 UNL A   1      42.942  29.609  27.221  1.00  0.00    +0.000 C 
ATOM     77  C54 UNL A   1      41.717  29.092  27.312  1.00  0.00    +0.000 C 
ATOM    117  H22 UNL A   1      46.261  28.299  30.436  1.00  0.00    +0.000 H 
ATOM    118  H23 UNL A   1      45.107  28.014  32.817  1.00  0.00    +0.000 H 
ATOM    119  H24 UNL A   1      44.404  31.737  31.427  1.00  0.00    +0.000 H 
ATOM    120  H25 UNL A   1      36.808  28.731  31.813  1.00  0.00    +0.000 H 
ATOM    121  H26 UNL A   1      37.971  26.999  30.349  1.00  0.00    +0.000 H 
ATOM    122  H27 UNL A   1      40.687  30.076  30.994  1.00  0.00    +0.000 H 
ATOM    123  H28 UNL A   1      40.120  33.197  31.292  1.00  0.00    +0.000 H 
ATOM    124  H29 UNL A   1      42.574  32.408  31.396  1.00  0.00    +0.000 H 
ATOM    125  H30 UNL A   1      43.383  29.922  26.342  1.00  0.00    +0.000 H 
ATOM    126  H31 UNL A   1      40.997  28.987  26.580  1.00  0.00    +0.000 H 
ENDROOT
BRANCH   21   20
ATOM     78  C55 UNL A   1      39.204  26.618  27.537  1.00  0.00    +0.000 C 
ATOM     79  C56 UNL A   1      38.971  25.389  26.934  1.00  0.00    +0.000 C 
ATOM     17  C13 UNL A   1      39.750  24.260  27.255  1.00  0.00    +0.000 C 
ATOM     18  C14 UNL A   1      40.852  24.428  28.090  1.00  0.00    +0.000 C 
ATOM     19  C15 UNL A   1      41.071  25.646  28.722  1.00  0.00    +0.000 C 
ATOM    115  H20 UNL A   1      41.509  23.646  28.241  1.00  0.00    +0.000 H 
ATOM    116  H21 UNL A   1      41.871  25.757  29.364  1.00  0.00    +0.000 H 
ATOM     20  C16 UNL A   1      40.209  26.722  28.489  1.00  0.00    +0.000 C 
ATOM    127  H32 UNL A   1      38.638  27.443  27.281  1.00  0.00    +0.000 H 
ATOM    128  H33 UNL A   1      38.213  25.302  26.240  1.00  0.00    +0.000 H 
BRANCH   17   15
ATOM     15  C12 UNL A   1      39.245  22.960  26.736  1.00  0.00    +0.000 C 
ATOM     16  O2  UNL A   1      39.842  21.928  27.051  1.00  0.00    +0.000 O 
BRANCH   15   14
ATOM    114  H19 UNL A   1      38.513  22.677  24.933  1.00  0.00    +0.000 H 
ATOM     14  N2  UNL A   1      38.208  22.814  25.859  1.00  0.00    +0.000 N 
BRANCH   14   13
ATOM    113  H18 UNL A   1      36.530  23.014  26.999  1.00  0.00    +0.000 H 
ATOM     13  C11 UNL A   1      36.764  22.813  25.975  1.00  0.00    +0.000 C 
ATOM    112  H17 UNL A   1      36.401  21.858  25.654  1.00  0.00    +0.000 H 
BRANCH   13   12
ATOM     12  C10 UNL A   1      36.082  23.895  25.136  1.00  0.00    +0.000 C 
ATOM    110  H15 UNL A   1      36.838  24.541  24.743  1.00  0.00    +0.000 H 
ATOM    111  H16 UNL A   1      35.531  23.391  24.371  1.00  0.00    +0.000 H 
BRANCH   12   11
ATOM     11  C9  UNL A   1      35.076  24.749  25.917  1.00  0.00    +0.000 C 
ATOM    108  H13 UNL A   1      34.344  24.094  26.340  1.00  0.00    +0.000 H 
ATOM    109  H14 UNL A   1      35.643  25.284  26.649  1.00  0.00    +0.000 H 
BRANCH   11   10
ATOM     10  C8  UNL A   1      34.343  25.807  25.085  1.00  0.00    +0.000 C 
ATOM    107  H12 UNL A   1      33.495  25.318  24.653  1.00  0.00    +0.000 H 
ATOM    106  H11 UNL A   1      35.024  26.189  24.355  1.00  0.00    +0.000 H 
BRANCH   10    9
ATOM      9  C7  UNL A   1      33.794  26.990  25.891  1.00  0.00    +0.000 C 
ATOM    105  H10 UNL A   1      33.603  27.784  25.201  1.00  0.00    +0.000 H 
ATOM    104  H9  UNL A   1      34.521  27.265  26.629  1.00  0.00    +0.000 H 
BRANCH    9    8
ATOM    102  H7  UNL A   1      32.278  25.631  26.523  1.00  0.00    +0.000 H 
ATOM    103  H8  UNL A   1      32.569  26.973  27.626  1.00  0.00    +0.000 H 
ATOM      8  C6  UNL A   1      32.476  26.679  26.601  1.00  0.00    +0.000 C 
BRANCH    8    7
ATOM    101  H6  UNL A   1      31.155  28.273  26.443  1.00  0.00    +0.000 H 
ATOM      7  N1  UNL A   1      31.373  27.413  26.015  1.00  0.00    +0.000 N 
BRANCH    7    5
ATOM      5  C5  UNL A   1      30.598  27.066  24.946  1.00  0.00    +0.000 C 
ATOM      6  O1  UNL A   1      30.403  27.907  24.066  1.00  0.00    +0.000 O 
BRANCH    5    4
ATOM    100  H5  UNL A   1      29.282  25.694  24.052  1.00  0.00    +0.000 H 
ATOM     99  H4  UNL A   1      29.427  25.530  25.817  1.00  0.00    +0.000 H 
ATOM      4  C4  UNL A   1      29.943  25.693  24.894  1.00  0.00    +0.000 C 
BRANCH    4    3
ATOM    129  H34 UNL A   1      31.371  26.012  22.222  1.00  0.00    +0.000 H 
ATOM      2  C2  UNL A   1      31.162  23.497  25.538  1.00  0.00    +0.000 C 
ATOM      3  C3  UNL A   1      30.917  24.567  24.687  1.00  0.00    +0.000 C 
ATOM    132  H37 UNL A   1      33.763  21.817  22.751  1.00  0.00    +0.000 H 
ATOM    130  H35 UNL A   1      32.915  25.268  20.509  1.00  0.00    +0.000 H 
ATOM    131  H36 UNL A   1      34.077  23.171  20.760  1.00  0.00    +0.000 H 
ATOM     80  C57 UNL A   1      31.739  24.387  23.541  1.00  0.00    +0.000 C 
ATOM     81  C58 UNL A   1      31.901  25.137  22.354  1.00  0.00    +0.000 C 
ATOM     82  C59 UNL A   1      32.773  24.699  21.358  1.00  0.00    +0.000 C 
ATOM     83  C60 UNL A   1      33.447  23.500  21.509  1.00  0.00    +0.000 C 
ATOM     84  C61 UNL A   1      33.285  22.729  22.664  1.00  0.00    +0.000 C 
ATOM     85  C62 UNL A   1      32.467  23.203  23.711  1.00  0.00    +0.000 C 
ATOM     86  N7  UNL A   1      32.212  22.730  25.009  1.00  0.00    +0.000 N 
BRANCH    2    1
ATOM      1  C1  UNL A   1      30.501  23.176  26.844  1.00  0.00    +0.000 C 
ATOM     98  H3  UNL A   1      30.220  22.144  26.856  1.00  0.00    +0.000 H 
ATOM     97  H2  UNL A   1      31.182  23.370  27.645  1.00  0.00    +0.000 H 
ATOM     96  H1  UNL A   1      29.629  23.785  26.960  1.00  0.00    +0.000 H 
ENDBRANCH    2    1
BRANCH   86   87
ATOM     87  C63 UNL A   1      32.882  21.675  25.701  1.00  0.00    +0.000 C 
ATOM     88  O3  UNL A   1      33.208  21.844  26.870  1.00  0.00    +0.000 O 
BRANCH   87   89
ATOM    133  H38 UNL A   1      35.306  20.463  25.540  1.00  0.00    +0.000 H 
ATOM    134  H39 UNL A   1      35.815  18.349  24.442  1.00  0.00    +0.000 H 
ATOM    135  H40 UNL A   1      31.719  17.744  23.683  1.00  0.00    +0.000 H 
ATOM    136  H41 UNL A   1      31.209  19.878  24.733  1.00  0.00    +0.000 H 
ATOM     89  C64 UNL A   1      33.230  20.359  25.140  1.00  0.00    +0.000 C 
ATOM     90  C65 UNL A   1      34.551  19.904  25.112  1.00  0.00    +0.000 C 
ATOM     91  C66 UNL A   1      34.840  18.681  24.498  1.00  0.00    +0.000 C 
ATOM     92  C67 UNL A   1      33.806  17.911  23.962  1.00  0.00    +0.000 C 
ATOM     93 Cl1  UNL A   1      34.170  16.430  23.165  1.00  0.00    +0.000 Cl
ATOM     94  C68 UNL A   1      32.480  18.335  24.055  1.00  0.00    +0.000 C 
ATOM     95  C69 UNL A   1      32.188  19.560  24.651  1.00  0.00    +0.000 C 
ENDBRANCH   87   89
ENDBRANCH   86   87
ENDBRANCH    4    3
ENDBRANCH    5    4
ENDBRANCH    7    5
ENDBRANCH    8    7
ENDBRANCH    9    8
ENDBRANCH   10    9
ENDBRANCH   11   10
ENDBRANCH   12   11
ENDBRANCH   13   12
ENDBRANCH   14   13
ENDBRANCH   15   14
ENDBRANCH   17   15
ENDBRANCH   21   20
BRANCH   25   26
ATOM     33  C25 UNL A   1      46.319  33.123  26.838  1.00  0.00    +0.000 C 
ATOM     34  F4  UNL A   1      47.433  33.243  26.102  1.00  0.00    +0.000 F 
ATOM     35  C26 UNL A   1      46.143  31.993  27.635  1.00  0.00    +0.000 C 
ATOM     36  F5  UNL A   1      47.109  31.074  27.535  1.00  0.00    +0.000 F 
ATOM     26  C21 UNL A   1      44.977  31.781  28.402  1.00  0.00    +0.000 C 
ATOM     27  C22 UNL A   1      44.013  32.809  28.333  1.00  0.00    +0.000 C 
ATOM     28  F1  UNL A   1      42.857  32.712  29.008  1.00  0.00    +0.000 F 
ATOM     29  C23 UNL A   1      44.171  33.917  27.494  1.00  0.00    +0.000 C 
ATOM     30  F2  UNL A   1      43.172  34.801  27.364  1.00  0.00    +0.000 F 
ATOM     31  C24 UNL A   1      45.320  34.068  26.740  1.00  0.00    +0.000 C 
ATOM     32  F3  UNL A   1      45.446  35.093  25.888  1.00  0.00    +0.000 F 
ENDBRANCH   25   26
BRANCH   42   43
ATOM     43  C32 UNL A   1      42.711  29.039  34.262  1.00  0.00    +0.000 C 
ATOM     44  C33 UNL A   1      41.934  27.882  34.075  1.00  0.00    +0.000 C 
ATOM     45  F6  UNL A   1      41.299  27.660  32.916  1.00  0.00    +0.000 F 
ATOM     46  C34 UNL A   1      41.851  26.901  35.064  1.00  0.00    +0.000 C 
ATOM     47  F7  UNL A   1      41.101  25.807  34.867  1.00  0.00    +0.000 F 
ATOM     48  C35 UNL A   1      42.577  27.035  36.237  1.00  0.00    +0.000 C 
ATOM     49  F8  UNL A   1      42.539  26.070  37.166  1.00  0.00    +0.000 F 
ATOM     50  C36 UNL A   1      43.369  28.155  36.432  1.00  0.00    +0.000 C 
ATOM     51  F9  UNL A   1      44.112  28.265  37.541  1.00  0.00    +0.000 F 
ATOM     52  C37 UNL A   1      43.424  29.152  35.462  1.00  0.00    +0.000 C 
ATOM     53  F10 UNL A   1      44.223  30.210  35.671  1.00  0.00    +0.000 F 
ENDBRANCH   42   43
BRANCH   57   58
ATOM     65  C45 UNL A   1      36.009  33.685  31.534  1.00  0.00    +0.000 C 
ATOM     66  F14 UNL A   1      35.643  34.371  30.442  1.00  0.00    +0.000 F 
ATOM     67  C46 UNL A   1      36.886  32.606  31.412  1.00  0.00    +0.000 C 
ATOM     68  F15 UNL A   1      37.345  32.330  30.183  1.00  0.00    +0.000 F 
ATOM     58  C41 UNL A   1      37.359  31.901  32.535  1.00  0.00    +0.000 C 
ATOM     59  C42 UNL A   1      36.867  32.316  33.785  1.00  0.00    +0.000 C 
ATOM     60  F11 UNL A   1      37.296  31.724  34.910  1.00  0.00    +0.000 F 
ATOM     61  C43 UNL A   1      35.990  33.400  33.907  1.00  0.00    +0.000 C 
ATOM     62  F12 UNL A   1      35.598  33.811  35.122  1.00  0.00    +0.000 F 
ATOM     63  C44 UNL A   1      35.574  34.092  32.782  1.00  0.00    +0.000 C 
ATOM     64  F13 UNL A   1      34.791  35.175  32.903  1.00  0.00    +0.000 F 
ENDBRANCH   57   58
TORSDOF 19
ENDMDL
MODEL 7
REMARK VINA RESULT:     -11.3      3.193      8.382
ROOT
ATOM     21  C17 UNL A   1      41.093  27.345  28.708  1.00  0.00    +0.000 C 
ATOM     22  C18 UNL A   1      42.323  27.999  28.184  1.00  0.00    +0.000 C 
ATOM     23  N3  UNL A   1      43.352  28.403  28.857  1.00  0.00    +0.000 N 
ATOM     24  C19 UNL A   1      44.230  28.948  27.925  1.00  0.00    +0.000 C 
ATOM     25  C20 UNL A   1      45.196  29.833  28.295  1.00  0.00    +0.000 C 
ATOM     37  C27 UNL A   1      45.470  29.745  29.706  1.00  0.00    +0.000 C 
ATOM     38  C28 UNL A   1      46.001  28.779  30.537  1.00  0.00    +0.000 C 
ATOM     39  C29 UNL A   1      45.282  28.910  31.762  1.00  0.00    +0.000 C 
ATOM     40  C30 UNL A   1      44.397  29.979  31.627  1.00  0.00    +0.000 C 
ATOM     41  N4  UNL A   1      44.865  30.656  30.532  1.00  0.00    +0.000 N 
ATOM     42  C31 UNL A   1      43.189  30.341  32.327  1.00  0.00    +0.000 C 
ATOM     54  C38 UNL A   1      42.226  31.175  31.837  1.00  0.00    +0.000 C 
ATOM     55  N5  UNL A   1      40.932  31.131  32.332  1.00  0.00    +0.000 N 
ATOM     56  C39 UNL A   1      40.189  31.552  31.347  1.00  0.00    +0.000 C 
ATOM     57  C40 UNL A   1      38.864  30.969  31.017  1.00  0.00    +0.000 C 
ATOM     69  C47 UNL A   1      39.093  29.707  30.571  1.00  0.00    +0.000 C 
ATOM     70  C48 UNL A   1      38.202  28.571  30.467  1.00  0.00    +0.000 C 
ATOM     71  C49 UNL A   1      38.880  27.539  29.921  1.00  0.00    +0.000 C 
ATOM     72  C50 UNL A   1      40.204  27.991  29.493  1.00  0.00    +0.000 C 
ATOM     73  N6  UNL A   1      40.309  29.264  30.014  1.00  0.00    +0.000 N 
ATOM     74  C51 UNL A   1      40.882  32.289  30.303  1.00  0.00    +0.000 C 
ATOM     75  C52 UNL A   1      42.138  31.955  30.606  1.00  0.00    +0.000 C 
ATOM     76  C53 UNL A   1      43.723  28.585  26.627  1.00  0.00    +0.000 C 
ATOM     77  C54 UNL A   1      42.500  28.064  26.725  1.00  0.00    +0.000 C 
ATOM    117  H22 UNL A   1      46.755  28.109  30.321  1.00  0.00    +0.000 H 
ATOM    118  H23 UNL A   1      45.396  28.317  32.600  1.00  0.00    +0.000 H 
ATOM    119  H24 UNL A   1      44.783  31.623  30.368  1.00  0.00    +0.000 H 
ATOM    120  H25 UNL A   1      37.213  28.553  30.762  1.00  0.00    +0.000 H 
ATOM    121  H26 UNL A   1      38.519  26.578  29.820  1.00  0.00    +0.000 H 
ATOM    122  H27 UNL A   1      41.136  29.799  29.998  1.00  0.00    +0.000 H 
ATOM    123  H28 UNL A   1      40.513  32.892  29.551  1.00  0.00    +0.000 H 
ATOM    124  H29 UNL A   1      42.956  32.218  30.035  1.00  0.00    +0.000 H 
ATOM    125  H30 UNL A   1      44.238  28.711  25.741  1.00  0.00    +0.000 H 
ATOM    126  H31 UNL A   1      41.849  27.780  25.976  1.00  0.00    +0.000 H 
ENDROOT
BRANCH   21   20
ATOM     78  C55 UNL A   1      41.846  24.978  28.560  1.00  0.00    +0.000 C 
ATOM     79  C56 UNL A   1      41.652  23.699  28.055  1.00  0.00    +0.000 C 
ATOM     17  C13 UNL A   1      40.523  23.386  27.273  1.00  0.00    +0.000 C 
ATOM     18  C14 UNL A   1      39.528  24.349  27.127  1.00  0.00    +0.000 C 
ATOM     19  C15 UNL A   1      39.730  25.640  27.600  1.00  0.00    +0.000 C 
ATOM    115  H20 UNL A   1      38.638  24.105  26.665  1.00  0.00    +0.000 H 
ATOM    116  H21 UNL A   1      39.003  26.359  27.462  1.00  0.00    +0.000 H 
ATOM     20  C16 UNL A   1      40.917  25.966  28.264  1.00  0.00    +0.000 C 
ATOM    127  H32 UNL A   1      42.667  25.192  29.147  1.00  0.00    +0.000 H 
ATOM    128  H33 UNL A   1      42.349  22.966  28.256  1.00  0.00    +0.000 H 
BRANCH   17   15
ATOM     15  C12 UNL A   1      40.559  22.065  26.590  1.00  0.00    +0.000 C 
ATOM     16  O2  UNL A   1      41.635  21.661  26.142  1.00  0.00    +0.000 O 
BRANCH   15   14
ATOM    114  H19 UNL A   1      39.383  20.535  26.973  1.00  0.00    +0.000 H 
ATOM     14  N2  UNL A   1      39.468  21.281  26.337  1.00  0.00    +0.000 N 
BRANCH   14   13
ATOM    113  H18 UNL A   1      38.118  20.277  25.187  1.00  0.00    +0.000 H 
ATOM     13  C11 UNL A   1      38.408  21.293  25.349  1.00  0.00    +0.000 C 
ATOM    112  H17 UNL A   1      38.781  21.757  24.460  1.00  0.00    +0.000 H 
BRANCH   13   12
ATOM     12  C10 UNL A   1      37.159  22.051  25.803  1.00  0.00    +0.000 C 
ATOM    110  H15 UNL A   1      36.301  21.457  25.564  1.00  0.00    +0.000 H 
ATOM    111  H16 UNL A   1      37.264  22.219  26.854  1.00  0.00    +0.000 H 
BRANCH   12   11
ATOM     11  C9  UNL A   1      36.990  23.426  25.148  1.00  0.00    +0.000 C 
ATOM    108  H13 UNL A   1      37.779  24.059  25.497  1.00  0.00    +0.000 H 
ATOM    109  H14 UNL A   1      37.013  23.260  24.092  1.00  0.00    +0.000 H 
BRANCH   11   10
ATOM     10  C8  UNL A   1      35.657  24.124  25.443  1.00  0.00    +0.000 C 
ATOM    107  H12 UNL A   1      35.888  24.971  26.054  1.00  0.00    +0.000 H 
ATOM    106  H11 UNL A   1      35.012  23.421  25.925  1.00  0.00    +0.000 H 
BRANCH   10    9
ATOM      9  C7  UNL A   1      34.931  24.668  24.207  1.00  0.00    +0.000 C 
ATOM    105  H10 UNL A   1      35.430  25.567  23.915  1.00  0.00    +0.000 H 
ATOM    104  H9  UNL A   1      33.906  24.842  24.464  1.00  0.00    +0.000 H 
BRANCH    9    8
ATOM    102  H7  UNL A   1      35.839  23.937  22.421  1.00  0.00    +0.000 H 
ATOM    103  H8  UNL A   1      35.017  22.712  23.382  1.00  0.00    +0.000 H 
ATOM      8  C6  UNL A   1      34.976  23.715  23.011  1.00  0.00    +0.000 C 
BRANCH    8    7
ATOM    101  H6  UNL A   1      33.550  24.766  21.927  1.00  0.00    +0.000 H 
ATOM      7  N1  UNL A   1      33.793  23.847  22.185  1.00  0.00    +0.000 N 
BRANCH    7    5
ATOM      5  C5  UNL A   1      32.973  22.861  21.717  1.00  0.00    +0.000 C 
ATOM      6  O1  UNL A   1      32.991  22.606  20.511  1.00  0.00    +0.000 O 
BRANCH    5    4
ATOM    100  H5  UNL A   1      32.432  21.187  22.866  1.00  0.00    +0.000 H 
ATOM     99  H4  UNL A   1      31.057  22.092  22.194  1.00  0.00    +0.000 H 
ATOM      4  C4  UNL A   1      32.016  22.152  22.665  1.00  0.00    +0.000 C 
BRANCH    4    3
ATOM    129  H34 UNL A   1      33.595  20.690  24.820  1.00  0.00    +0.000 H 
ATOM      2  C2  UNL A   1      31.094  23.975  24.262  1.00  0.00    +0.000 C 
ATOM      3  C3  UNL A   1      31.853  22.845  23.989  1.00  0.00    +0.000 C 
ATOM    132  H37 UNL A   1      31.982  23.648  28.319  1.00  0.00    +0.000 H 
ATOM    130  H35 UNL A   1      34.319  20.373  27.111  1.00  0.00    +0.000 H 
ATOM    131  H36 UNL A   1      33.492  21.823  28.850  1.00  0.00    +0.000 H 
ATOM     80  C57 UNL A   1      32.434  22.425  25.217  1.00  0.00    +0.000 C 
ATOM     81  C58 UNL A   1      33.276  21.340  25.554  1.00  0.00    +0.000 C 
ATOM     82  C59 UNL A   1      33.676  21.144  26.876  1.00  0.00    +0.000 C 
ATOM     83  C60 UNL A   1      33.208  21.984  27.870  1.00  0.00    +0.000 C 
ATOM     84  C61 UNL A   1      32.356  23.050  27.565  1.00  0.00    +0.000 C 
ATOM     85  C62 UNL A   1      32.010  23.305  26.220  1.00  0.00    +0.000 C 
ATOM     86  N7  UNL A   1      31.295  24.343  25.602  1.00  0.00    +0.000 N 
BRANCH    2    1
ATOM      1  C1  UNL A   1      30.223  24.760  23.328  1.00  0.00    +0.000 C 
ATOM     98  H3  UNL A   1      30.482  24.523  22.317  1.00  0.00    +0.000 H 
ATOM     97  H2  UNL A   1      29.198  24.511  23.502  1.00  0.00    +0.000 H 
ATOM     96  H1  UNL A   1      30.372  25.806  23.499  1.00  0.00    +0.000 H 
ENDBRANCH    2    1
BRANCH   86   87
ATOM     87  C63 UNL A   1      30.849  25.566  26.189  1.00  0.00    +0.000 C 
ATOM     88  O3  UNL A   1      29.663  25.692  26.471  1.00  0.00    +0.000 O 
BRANCH   87   89
ATOM    133  H38 UNL A   1      30.236  27.794  27.613  1.00  0.00    +0.000 H 
ATOM    134  H39 UNL A   1      31.648  29.751  27.948  1.00  0.00    +0.000 H 
ATOM    135  H40 UNL A   1      34.821  27.813  25.974  1.00  0.00    +0.000 H 
ATOM    136  H41 UNL A   1      33.400  25.876  25.592  1.00  0.00    +0.000 H 
ATOM     89  C64 UNL A   1      31.693  26.730  26.506  1.00  0.00    +0.000 C 
ATOM     90  C65 UNL A   1      31.196  27.815  27.233  1.00  0.00    +0.000 C 
ATOM     91  C66 UNL A   1      32.014  28.930  27.441  1.00  0.00    +0.000 C 
ATOM     92  C67 UNL A   1      33.325  28.930  26.961  1.00  0.00    +0.000 C 
ATOM     93 Cl1  UNL A   1      34.313  30.322  27.177  1.00  0.00    +0.000 Cl
ATOM     94  C68 UNL A   1      33.840  27.816  26.297  1.00  0.00    +0.000 C 
ATOM     95  C69 UNL A   1      33.025  26.708  26.073  1.00  0.00    +0.000 C 
ENDBRANCH   87   89
ENDBRANCH   86   87
ENDBRANCH    4    3
ENDBRANCH    5    4
ENDBRANCH    7    5
ENDBRANCH    8    7
ENDBRANCH    9    8
ENDBRANCH   10    9
ENDBRANCH   11   10
ENDBRANCH   12   11
ENDBRANCH   13   12
ENDBRANCH   14   13
ENDBRANCH   15   14
ENDBRANCH   17   15
ENDBRANCH   21   20
BRANCH   25   26
ATOM     33  C25 UNL A   1      45.306  33.354  26.754  1.00  0.00    +0.000 C 
ATOM     34  F4  UNL A   1      44.475  34.393  26.585  1.00  0.00    +0.000 F 
ATOM     35  C26 UNL A   1      44.799  32.143  27.225  1.00  0.00    +0.000 C 
ATOM     36  F5  UNL A   1      43.498  32.154  27.532  1.00  0.00    +0.000 F 
ATOM     26  C21 UNL A   1      45.622  31.022  27.467  1.00  0.00    +0.000 C 
ATOM     27  C22 UNL A   1      46.990  31.200  27.170  1.00  0.00    +0.000 C 
ATOM     28  F1  UNL A   1      47.870  30.208  27.375  1.00  0.00    +0.000 F 
ATOM     29  C23 UNL A   1      47.501  32.430  26.747  1.00  0.00    +0.000 C 
ATOM     30  F2  UNL A   1      48.824  32.587  26.602  1.00  0.00    +0.000 F 
ATOM     31  C24 UNL A   1      46.659  33.509  26.548  1.00  0.00    +0.000 C 
ATOM     32  F3  UNL A   1      47.154  34.705  26.206  1.00  0.00    +0.000 F 
ENDBRANCH   25   26
BRANCH   42   43
ATOM     43  C32 UNL A   1      42.870  29.562  33.574  1.00  0.00    +0.000 C 
ATOM     44  C33 UNL A   1      43.047  30.065  34.875  1.00  0.00    +0.000 C 
ATOM     45  F6  UNL A   1      43.576  31.280  35.077  1.00  0.00    +0.000 F 
ATOM     46  C34 UNL A   1      42.622  29.344  35.991  1.00  0.00    +0.000 C 
ATOM     47  F7  UNL A   1      42.804  29.840  37.224  1.00  0.00    +0.000 F 
ATOM     48  C35 UNL A   1      41.971  28.131  35.828  1.00  0.00    +0.000 C 
ATOM     49  F8  UNL A   1      41.516  27.462  36.896  1.00  0.00    +0.000 F 
ATOM     50  C36 UNL A   1      41.764  27.629  34.553  1.00  0.00    +0.000 C 
ATOM     51  F9  UNL A   1      41.090  26.482  34.387  1.00  0.00    +0.000 F 
ATOM     52  C37 UNL A   1      42.221  28.329  33.440  1.00  0.00    +0.000 C 
ATOM     53  F10 UNL A   1      41.978  27.827  32.220  1.00  0.00    +0.000 F 
ENDBRANCH   42   43
BRANCH   57   58
ATOM     65  C45 UNL A   1      35.397  32.424  31.516  1.00  0.00    +0.000 C 
ATOM     66  F14 UNL A   1      34.459  32.439  32.473  1.00  0.00    +0.000 F 
ATOM     67  C46 UNL A   1      36.669  31.925  31.801  1.00  0.00    +0.000 C 
ATOM     68  F15 UNL A   1      36.875  31.451  33.038  1.00  0.00    +0.000 F 
ATOM     58  C41 UNL A   1      37.665  31.819  30.811  1.00  0.00    +0.000 C 
ATOM     59  C42 UNL A   1      37.323  32.282  29.529  1.00  0.00    +0.000 C 
ATOM     60  F11 UNL A   1      38.199  32.182  28.519  1.00  0.00    +0.000 F 
ATOM     61  C43 UNL A   1      36.046  32.780  29.244  1.00  0.00    +0.000 C 
ATOM     62  F12 UNL A   1      35.735  33.146  27.992  1.00  0.00    +0.000 F 
ATOM     63  C44 UNL A   1      35.080  32.836  30.234  1.00  0.00    +0.000 C 
ATOM     64  F13 UNL A   1      33.836  33.245  29.946  1.00  0.00    +0.000 F 
ENDBRANCH   57   58
TORSDOF 19
ENDMDL
MODEL 8
REMARK VINA RESULT:     -10.8     25.286     31.698
ROOT
ATOM     21  C17 UNL A   1      23.254  18.899   4.854  1.00  0.00    +0.000 C 
ATOM     22  C18 UNL A   1      22.546  17.609   4.624  1.00  0.00    +0.000 C 
ATOM     23  N3  UNL A   1      22.028  16.823   5.510  1.00  0.00    +0.000 N 
ATOM     24  C19 UNL A   1      21.489  15.751   4.804  1.00  0.00    +0.000 C 
ATOM     25  C20 UNL A   1      21.250  14.554   5.407  1.00  0.00    +0.000 C 
ATOM     37  C27 UNL A   1      21.171  14.698   6.838  1.00  0.00    +0.000 C 
ATOM     38  C28 UNL A   1      20.310  15.337   7.707  1.00  0.00    +0.000 C 
ATOM     39  C29 UNL A   1      21.138  15.811   8.767  1.00  0.00    +0.000 C 
ATOM     40  C30 UNL A   1      22.442  15.388   8.513  1.00  0.00    +0.000 C 
ATOM     41  N4  UNL A   1      22.290  14.404   7.572  1.00  0.00    +0.000 N 
ATOM     42  C31 UNL A   1      23.727  15.855   8.974  1.00  0.00    +0.000 C 
ATOM     54  C38 UNL A   1      24.914  15.613   8.345  1.00  0.00    +0.000 C 
ATOM     55  N5  UNL A   1      26.012  16.429   8.566  1.00  0.00    +0.000 N 
ATOM     56  C39 UNL A   1      26.719  16.330   7.475  1.00  0.00    +0.000 C 
ATOM     57  C40 UNL A   1      27.426  17.479   6.855  1.00  0.00    +0.000 C 
ATOM     69  C47 UNL A   1      26.469  18.327   6.398  1.00  0.00    +0.000 C 
ATOM     70  C48 UNL A   1      26.542  19.731   6.057  1.00  0.00    +0.000 C 
ATOM     71  C49 UNL A   1      25.334  20.130   5.605  1.00  0.00    +0.000 C 
ATOM     72  C50 UNL A   1      24.449  18.971   5.477  1.00  0.00    +0.000 C 
ATOM     73  N6  UNL A   1      25.151  17.945   6.075  1.00  0.00    +0.000 N 
ATOM     74  C51 UNL A   1      26.425  15.183   6.633  1.00  0.00    +0.000 C 
ATOM     75  C52 UNL A   1      25.254  14.824   7.164  1.00  0.00    +0.000 C 
ATOM     76  C53 UNL A   1      21.520  16.122   3.413  1.00  0.00    +0.000 C 
ATOM     77  C54 UNL A   1      22.238  17.232   3.236  1.00  0.00    +0.000 C 
ATOM    117  H22 UNL A   1      19.288  15.447   7.612  1.00  0.00    +0.000 H 
ATOM    118  H23 UNL A   1      20.826  16.369   9.578  1.00  0.00    +0.000 H 
ATOM    119  H24 UNL A   1      22.879  13.625   7.446  1.00  0.00    +0.000 H 
ATOM    120  H25 UNL A   1      27.378  20.330   6.145  1.00  0.00    +0.000 H 
ATOM    121  H26 UNL A   1      25.073  21.103   5.383  1.00  0.00    +0.000 H 
ATOM    122  H27 UNL A   1      24.776  17.052   6.254  1.00  0.00    +0.000 H 
ATOM    123  H28 UNL A   1      26.962  14.768   5.855  1.00  0.00    +0.000 H 
ATOM    124  H29 UNL A   1      24.657  14.074   6.784  1.00  0.00    +0.000 H 
ATOM    125  H30 UNL A   1      21.050  15.601   2.657  1.00  0.00    +0.000 H 
ATOM    126  H31 UNL A   1      22.506  17.702   2.357  1.00  0.00    +0.000 H 
ENDROOT
BRANCH   21   20
ATOM     78  C55 UNL A   1      21.230  20.327   4.609  1.00  0.00    +0.000 C 
ATOM     79  C56 UNL A   1      20.610  21.415   4.010  1.00  0.00    +0.000 C 
ATOM     17  C13 UNL A   1      21.312  22.264   3.132  1.00  0.00    +0.000 C 
ATOM     18  C14 UNL A   1      22.683  22.073   2.978  1.00  0.00    +0.000 C 
ATOM     19  C15 UNL A   1      23.303  20.967   3.546  1.00  0.00    +0.000 C 
ATOM    115  H20 UNL A   1      23.241  22.755   2.439  1.00  0.00    +0.000 H 
ATOM    116  H21 UNL A   1      24.313  20.813   3.402  1.00  0.00    +0.000 H 
ATOM     20  C16 UNL A   1      22.561  20.063   4.311  1.00  0.00    +0.000 C 
ATOM    127  H32 UNL A   1      20.711  19.722   5.264  1.00  0.00    +0.000 H 
ATOM    128  H33 UNL A   1      19.616  21.605   4.212  1.00  0.00    +0.000 H 
BRANCH   17   15
ATOM     15  C12 UNL A   1      20.479  23.234   2.370  1.00  0.00    +0.000 C 
ATOM     16  O2  UNL A   1      19.676  22.798   1.542  1.00  0.00    +0.000 O 
BRANCH   15   14
ATOM    114  H19 UNL A   1      20.394  24.936   3.350  1.00  0.00    +0.000 H 
ATOM     14  N2  UNL A   1      20.587  24.594   2.448  1.00  0.00    +0.000 N 
BRANCH   14   13
ATOM    113  H18 UNL A   1      20.264  26.468   1.716  1.00  0.00    +0.000 H 
ATOM     13  C11 UNL A   1      20.920  25.648   1.512  1.00  0.00    +0.000 C 
ATOM    112  H17 UNL A   1      20.799  25.268   0.519  1.00  0.00    +0.000 H 
BRANCH   13   12
ATOM     12  C10 UNL A   1      22.351  26.168   1.660  1.00  0.00    +0.000 C 
ATOM    110  H15 UNL A   1      22.733  25.836   2.602  1.00  0.00    +0.000 H 
ATOM    111  H16 UNL A   1      22.906  25.783   0.831  1.00  0.00    +0.000 H 
BRANCH   12   11
ATOM     11  C9  UNL A   1      22.470  27.695   1.602  1.00  0.00    +0.000 C 
ATOM    108  H13 UNL A   1      22.346  28.076   2.594  1.00  0.00    +0.000 H 
ATOM    109  H14 UNL A   1      23.431  27.904   1.182  1.00  0.00    +0.000 H 
BRANCH   11   10
ATOM     10  C8  UNL A   1      21.447  28.390   0.696  1.00  0.00    +0.000 C 
ATOM    107  H12 UNL A   1      20.520  27.876   0.837  1.00  0.00    +0.000 H 
ATOM    106  H11 UNL A   1      21.806  28.342  -0.311  1.00  0.00    +0.000 H 
BRANCH   10    9
ATOM      9  C7  UNL A   1      21.182  29.861   1.038  1.00  0.00    +0.000 C 
ATOM    105  H10 UNL A   1      21.574  30.449   0.235  1.00  0.00    +0.000 H 
ATOM    104  H9  UNL A   1      21.658  30.084   1.970  1.00  0.00    +0.000 H 
BRANCH    9    8
ATOM    102  H7  UNL A   1      19.385  30.039   2.172  1.00  0.00    +0.000 H 
ATOM    103  H8  UNL A   1      19.554  31.216   0.872  1.00  0.00    +0.000 H 
ATOM      8  C6  UNL A   1      19.695  30.194   1.160  1.00  0.00    +0.000 C 
BRANCH    8    7
ATOM    101  H6  UNL A   1      18.921  28.394   0.472  1.00  0.00    +0.000 H 
ATOM      7  N1  UNL A   1      18.892  29.361   0.288  1.00  0.00    +0.000 N 
BRANCH    7    5
ATOM      5  C5  UNL A   1      18.100  29.744  -0.756  1.00  0.00    +0.000 C 
ATOM      6  O1  UNL A   1      17.389  30.741  -0.618  1.00  0.00    +0.000 O 
BRANCH    5    4
ATOM    100  H5  UNL A   1      17.900  29.584  -2.842  1.00  0.00    +0.000 H 
ATOM     99  H4  UNL A   1      17.270  28.191  -1.934  1.00  0.00    +0.000 H 
ATOM      4  C4  UNL A   1      18.059  28.908  -2.027  1.00  0.00    +0.000 C 
BRANCH    4    3
ATOM    129  H34 UNL A   1      17.721  25.940  -1.432  1.00  0.00    +0.000 H 
ATOM      2  C2  UNL A   1      20.539  28.709  -2.756  1.00  0.00    +0.000 C 
ATOM      3  C3  UNL A   1      19.339  28.173  -2.310  1.00  0.00    +0.000 C 
ATOM    132  H37 UNL A   1      22.380  24.987  -2.421  1.00  0.00    +0.000 H 
ATOM    130  H35 UNL A   1      18.562  23.674  -1.261  1.00  0.00    +0.000 H 
ATOM    131  H36 UNL A   1      20.882  23.209  -1.722  1.00  0.00    +0.000 H 
ATOM     80  C57 UNL A   1      19.547  26.778  -2.124  1.00  0.00    +0.000 C 
ATOM     81  C58 UNL A   1      18.703  25.737  -1.675  1.00  0.00    +0.000 C 
ATOM     82  C59 UNL A   1      19.191  24.437  -1.555  1.00  0.00    +0.000 C 
ATOM     83  C60 UNL A   1      20.520  24.171  -1.831  1.00  0.00    +0.000 C 
ATOM     84  C61 UNL A   1      21.381  25.188  -2.255  1.00  0.00    +0.000 C 
ATOM     85  C62 UNL A   1      20.877  26.490  -2.456  1.00  0.00    +0.000 C 
ATOM     86  N7  UNL A   1      21.448  27.662  -2.980  1.00  0.00    +0.000 N 
BRANCH    2    1
ATOM      1  C1  UNL A   1      20.873  30.144  -3.032  1.00  0.00    +0.000 C 
ATOM     98  H3  UNL A   1      21.698  30.441  -2.420  1.00  0.00    +0.000 H 
ATOM     97  H2  UNL A   1      21.132  30.258  -4.063  1.00  0.00    +0.000 H 
ATOM     96  H1  UNL A   1      20.023  30.755  -2.807  1.00  0.00    +0.000 H 
ENDBRANCH    2    1
BRANCH   86   87
ATOM     87  C63 UNL A   1      22.709  27.801  -3.635  1.00  0.00    +0.000 C 
ATOM     88  O3  UNL A   1      23.643  28.308  -3.026  1.00  0.00    +0.000 O 
BRANCH   87   89
ATOM    133  H38 UNL A   1      24.041  25.600  -4.502  1.00  0.00    +0.000 H 
ATOM    134  H39 UNL A   1      24.650  25.068  -6.800  1.00  0.00    +0.000 H 
ATOM    135  H40 UNL A   1      22.506  28.427  -8.156  1.00  0.00    +0.000 H 
ATOM    136  H41 UNL A   1      21.938  28.992  -5.860  1.00  0.00    +0.000 H 
ATOM     89  C64 UNL A   1      23.017  27.380  -5.013  1.00  0.00    +0.000 C 
ATOM     90  C65 UNL A   1      23.749  26.219  -5.274  1.00  0.00    +0.000 C 
ATOM     91  C66 UNL A   1      24.082  25.905  -6.596  1.00  0.00    +0.000 C 
ATOM     92  C67 UNL A   1      23.644  26.725  -7.637  1.00  0.00    +0.000 C 
ATOM     93 Cl1  UNL A   1      24.096  26.362  -9.257  1.00  0.00    +0.000 Cl
ATOM     94  C68 UNL A   1      22.852  27.844  -7.377  1.00  0.00    +0.000 C 
ATOM     95  C69 UNL A   1      22.531  28.172  -6.061  1.00  0.00    +0.000 C 
ENDBRANCH   87   89
ENDBRANCH   86   87
ENDBRANCH    4    3
ENDBRANCH    5    4
ENDBRANCH    7    5
ENDBRANCH    8    7
ENDBRANCH    9    8
ENDBRANCH   10    9
ENDBRANCH   11   10
ENDBRANCH   12   11
ENDBRANCH   13   12
ENDBRANCH   14   13
ENDBRANCH   15   14
ENDBRANCH   17   15
ENDBRANCH   21   20
BRANCH   25   26
ATOM     33  C25 UNL A   1      22.928  11.346   4.113  1.00  0.00    +0.000 C 
ATOM     34  F4  UNL A   1      24.167  10.911   3.839  1.00  0.00    +0.000 F 
ATOM     35  C26 UNL A   1      22.726  12.694   4.407  1.00  0.00    +0.000 C 
ATOM     36  F5  UNL A   1      23.837  13.437   4.451  1.00  0.00    +0.000 F 
ATOM     26  C21 UNL A   1      21.458  13.212   4.746  1.00  0.00    +0.000 C 
ATOM     27  C22 UNL A   1      20.401  12.278   4.736  1.00  0.00    +0.000 C 
ATOM     28  F1  UNL A   1      19.152  12.653   5.056  1.00  0.00    +0.000 F 
ATOM     29  C23 UNL A   1      20.616  10.919   4.490  1.00  0.00    +0.000 C 
ATOM     30  F2  UNL A   1      19.603  10.051   4.618  1.00  0.00    +0.000 F 
ATOM     31  C24 UNL A   1      21.882  10.453   4.188  1.00  0.00    +0.000 C 
ATOM     32  F3  UNL A   1      22.103   9.143   4.016  1.00  0.00    +0.000 F 
ENDBRANCH   25   26
BRANCH   42   43
ATOM     43  C32 UNL A   1      23.720  16.865  10.088  1.00  0.00    +0.000 C 
ATOM     44  C33 UNL A   1      23.702  18.256   9.882  1.00  0.00    +0.000 C 
ATOM     45  F6  UNL A   1      23.746  18.768   8.644  1.00  0.00    +0.000 F 
ATOM     46  C34 UNL A   1      23.575  19.142  10.952  1.00  0.00    +0.000 C 
ATOM     47  F7  UNL A   1      23.563  20.465  10.734  1.00  0.00    +0.000 F 
ATOM     48  C35 UNL A   1      23.416  18.657  12.240  1.00  0.00    +0.000 C 
ATOM     49  F8  UNL A   1      23.242  19.505  13.263  1.00  0.00    +0.000 F 
ATOM     50  C36 UNL A   1      23.407  17.289  12.464  1.00  0.00    +0.000 C 
ATOM     51  F9  UNL A   1      23.203  16.814  13.700  1.00  0.00    +0.000 F 
ATOM     52  C37 UNL A   1      23.571  16.404  11.403  1.00  0.00    +0.000 C 
ATOM     53  F10 UNL A   1      23.528  15.086  11.651  1.00  0.00    +0.000 F 
ENDBRANCH   42   43
BRANCH   57   58
ATOM     65  C45 UNL A   1      31.165  18.117   6.837  1.00  0.00    +0.000 C 
ATOM     66  F14 UNL A   1      32.084  18.631   7.666  1.00  0.00    +0.000 F 
ATOM     67  C46 UNL A   1      29.874  17.866   7.306  1.00  0.00    +0.000 C 
ATOM     68  F15 UNL A   1      29.614  18.190   8.581  1.00  0.00    +0.000 F 
ATOM     58  C41 UNL A   1      28.853  17.397   6.457  1.00  0.00    +0.000 C 
ATOM     59  C42 UNL A   1      29.215  17.154   5.121  1.00  0.00    +0.000 C 
ATOM     60  F11 UNL A   1      28.294  16.744   4.236  1.00  0.00    +0.000 F 
ATOM     61  C43 UNL A   1      30.509  17.408   4.652  1.00  0.00    +0.000 C 
ATOM     62  F12 UNL A   1      30.798  17.232   3.354  1.00  0.00    +0.000 F 
ATOM     63  C44 UNL A   1      31.478  17.904   5.508  1.00  0.00    +0.000 C 
ATOM     64  F13 UNL A   1      32.697  18.216   5.044  1.00  0.00    +0.000 F 
ENDBRANCH   57   58
TORSDOF 19
ENDMDL
MODEL 9
REMARK VINA RESULT:     -10.8     24.672     31.334
ROOT
ATOM     21  C17 UNL A   1      23.840  18.938   4.556  1.00  0.00    +0.000 C 
ATOM     22  C18 UNL A   1      23.064  17.669   4.620  1.00  0.00    +0.000 C 
ATOM     23  N3  UNL A   1      22.527  17.121   5.661  1.00  0.00    +0.000 N 
ATOM     24  C19 UNL A   1      21.920  15.953   5.210  1.00  0.00    +0.000 C 
ATOM     25  C20 UNL A   1      21.635  14.929   6.062  1.00  0.00    +0.000 C 
ATOM     37  C27 UNL A   1      21.595  15.384   7.428  1.00  0.00    +0.000 C 
ATOM     38  C28 UNL A   1      20.787  16.241   8.147  1.00  0.00    +0.000 C 
ATOM     39  C29 UNL A   1      21.661  16.887   9.070  1.00  0.00    +0.000 C 
ATOM     40  C30 UNL A   1      22.937  16.350   8.899  1.00  0.00    +0.000 C 
ATOM     41  N4  UNL A   1      22.715  15.195   8.196  1.00  0.00    +0.000 N 
ATOM     42  C31 UNL A   1      24.253  16.835   9.233  1.00  0.00    +0.000 C 
ATOM     54  C38 UNL A   1      25.412  16.400   8.659  1.00  0.00    +0.000 C 
ATOM     55  N5  UNL A   1      26.554  17.184   8.685  1.00  0.00    +0.000 N 
ATOM     56  C39 UNL A   1      27.231  16.814   7.634  1.00  0.00    +0.000 C 
ATOM     57  C40 UNL A   1      27.981  17.762   6.771  1.00  0.00    +0.000 C 
ATOM     69  C47 UNL A   1      27.057  18.541   6.152  1.00  0.00    +0.000 C 
ATOM     70  C48 UNL A   1      27.192  19.833   5.513  1.00  0.00    +0.000 C 
ATOM     71  C49 UNL A   1      25.996  20.188   4.999  1.00  0.00    +0.000 C 
ATOM     72  C50 UNL A   1      25.052  19.078   5.135  1.00  0.00    +0.000 C 
ATOM     73  N6  UNL A   1      25.715  18.170   5.934  1.00  0.00    +0.000 N 
ATOM     74  C51 UNL A   1      26.861  15.530   7.064  1.00  0.00    +0.000 C 
ATOM     75  C52 UNL A   1      25.686  15.358   7.674  1.00  0.00    +0.000 C 
ATOM     76  C53 UNL A   1      21.938  16.013   3.772  1.00  0.00    +0.000 C 
ATOM     77  C54 UNL A   1      22.706  17.017   3.350  1.00  0.00    +0.000 C 
ATOM    117  H22 UNL A   1      19.770  16.382   8.041  1.00  0.00    +0.000 H 
ATOM    118  H23 UNL A   1      21.397  17.623   9.743  1.00  0.00    +0.000 H 
ATOM    119  H24 UNL A   1      23.261  14.377   8.236  1.00  0.00    +0.000 H 
ATOM    120  H25 UNL A   1      28.060  20.390   5.461  1.00  0.00    +0.000 H 
ATOM    121  H26 UNL A   1      25.780  21.103   4.573  1.00  0.00    +0.000 H 
ATOM    122  H27 UNL A   1      25.300  17.358   6.307  1.00  0.00    +0.000 H 
ATOM    123  H28 UNL A   1      27.359  14.928   6.388  1.00  0.00    +0.000 H 
ATOM    124  H29 UNL A   1      25.044  14.576   7.472  1.00  0.00    +0.000 H 
ATOM    125  H30 UNL A   1      21.425  15.366   3.153  1.00  0.00    +0.000 H 
ATOM    126  H31 UNL A   1      22.978  17.271   2.387  1.00  0.00    +0.000 H 
ENDROOT
BRANCH   21   20
ATOM     78  C55 UNL A   1      23.614  20.319   2.499  1.00  0.00    +0.000 C 
ATOM     79  C56 UNL A   1      23.000  21.375   1.838  1.00  0.00    +0.000 C 
ATOM     17  C13 UNL A   1      21.948  22.097   2.435  1.00  0.00    +0.000 C 
ATOM     18  C14 UNL A   1      21.440  21.647   3.652  1.00  0.00    +0.000 C 
ATOM     19  C15 UNL A   1      22.071  20.614   4.334  1.00  0.00    +0.000 C 
ATOM    115  H20 UNL A   1      20.593  22.083   4.049  1.00  0.00    +0.000 H 
ATOM    116  H21 UNL A   1      21.709  20.305   5.249  1.00  0.00    +0.000 H 
ATOM     20  C16 UNL A   1      23.195  19.992   3.781  1.00  0.00    +0.000 C 
ATOM    127  H32 UNL A   1      24.372  19.785   2.044  1.00  0.00    +0.000 H 
ATOM    128  H33 UNL A   1      23.321  21.635   0.893  1.00  0.00    +0.000 H 
BRANCH   17   15
ATOM     15  C12 UNL A   1      21.549  23.349   1.738  1.00  0.00    +0.000 C 
ATOM     16  O2  UNL A   1      20.560  23.324   1.001  1.00  0.00    +0.000 O 
BRANCH   15   14
ATOM    114  H19 UNL A   1      23.217  24.391   1.774  1.00  0.00    +0.000 H 
ATOM     14  N2  UNL A   1      22.242  24.526   1.777  1.00  0.00    +0.000 N 
BRANCH   14   13
ATOM    113  H18 UNL A   1      22.248  26.321   2.744  1.00  0.00    +0.000 H 
ATOM     13  C11 UNL A   1      21.875  25.927   1.822  1.00  0.00    +0.000 C 
ATOM    112  H17 UNL A   1      20.810  25.999   1.749  1.00  0.00    +0.000 H 
BRANCH   13   12
ATOM     12  C10 UNL A   1      22.493  26.758   0.696  1.00  0.00    +0.000 C 
ATOM    110  H15 UNL A   1      23.550  26.803   0.854  1.00  0.00    +0.000 H 
ATOM    111  H16 UNL A   1      22.234  26.274  -0.223  1.00  0.00    +0.000 H 
BRANCH   12   11
ATOM     11  C9  UNL A   1      21.957  28.191   0.609  1.00  0.00    +0.000 C 
ATOM    108  H13 UNL A   1      22.505  28.793   1.302  1.00  0.00    +0.000 H 
ATOM    109  H14 UNL A   1      22.079  28.494  -0.409  1.00  0.00    +0.000 H 
BRANCH   11   10
ATOM     10  C8  UNL A   1      20.464  28.343   0.925  1.00  0.00    +0.000 C 
ATOM    107  H12 UNL A   1      20.234  27.602   1.661  1.00  0.00    +0.000 H 
ATOM    106  H11 UNL A   1      19.916  28.217   0.015  1.00  0.00    +0.000 H 
BRANCH   10    9
ATOM      9  C7  UNL A   1      20.073  29.695   1.535  1.00  0.00    +0.000 C 
ATOM    105  H10 UNL A   1      20.501  29.738   2.513  1.00  0.00    +0.000 H 
ATOM    104  H9  UNL A   1      19.004  29.759   1.560  1.00  0.00    +0.000 H 
BRANCH    9    8
ATOM    102  H7  UNL A   1      20.319  31.793   1.244  1.00  0.00    +0.000 H 
ATOM    103  H8  UNL A   1      21.678  30.811   0.705  1.00  0.00    +0.000 H 
ATOM      8  C6  UNL A   1      20.612  30.891   0.750  1.00  0.00    +0.000 C 
BRANCH    8    7
ATOM    101  H6  UNL A   1      19.120  30.893  -0.695  1.00  0.00    +0.000 H 
ATOM      7  N1  UNL A   1      20.100  30.908  -0.606  1.00  0.00    +0.000 N 
BRANCH    7    5
ATOM      5  C5  UNL A   1      20.803  30.943  -1.776  1.00  0.00    +0.000 C 
ATOM      6  O1  UNL A   1      21.802  31.664  -1.839  1.00  0.00    +0.000 O 
BRANCH    5    4
ATOM    100  H5  UNL A   1      20.993  30.356  -3.784  1.00  0.00    +0.000 H 
ATOM     99  H4  UNL A   1      19.315  30.479  -3.211  1.00  0.00    +0.000 H 
ATOM      4  C4  UNL A   1      20.311  30.160  -2.984  1.00  0.00    +0.000 C 
BRANCH    4    3
ATOM    129  H34 UNL A   1      22.966  28.948  -3.856  1.00  0.00    +0.000 H 
ATOM      2  C2  UNL A   1      19.254  27.899  -2.280  1.00  0.00    +0.000 C 
ATOM      3  C3  UNL A   1      20.296  28.671  -2.774  1.00  0.00    +0.000 C 
ATOM    132  H37 UNL A   1      21.443  24.422  -2.966  1.00  0.00    +0.000 H 
ATOM    130  H35 UNL A   1      24.447  27.069  -4.240  1.00  0.00    +0.000 H 
ATOM    131  H36 UNL A   1      23.677  24.822  -3.828  1.00  0.00    +0.000 H 
ATOM     80  C57 UNL A   1      21.361  27.783  -3.090  1.00  0.00    +0.000 C 
ATOM     81  C58 UNL A   1      22.649  27.991  -3.635  1.00  0.00    +0.000 C 
ATOM     82  C59 UNL A   1      23.495  26.909  -3.876  1.00  0.00    +0.000 C 
ATOM     83  C60 UNL A   1      23.054  25.621  -3.628  1.00  0.00    +0.000 C 
ATOM     84  C61 UNL A   1      21.776  25.388  -3.111  1.00  0.00    +0.000 C 
ATOM     85  C62 UNL A   1      20.944  26.481  -2.789  1.00  0.00    +0.000 C 
ATOM     86  N7  UNL A   1      19.693  26.571  -2.158  1.00  0.00    +0.000 N 
BRANCH    2    1
ATOM      1  C1  UNL A   1      17.881  28.340  -1.872  1.00  0.00    +0.000 C 
ATOM     98  H3  UNL A   1      17.820  28.370  -0.804  1.00  0.00    +0.000 H 
ATOM     97  H2  UNL A   1      17.687  29.313  -2.269  1.00  0.00    +0.000 H 
ATOM     96  H1  UNL A   1      17.158  27.648  -2.251  1.00  0.00    +0.000 H 
ENDBRANCH    2    1
BRANCH   86   87
ATOM     87  C63 UNL A   1      18.974  25.531  -1.493  1.00  0.00    +0.000 C 
ATOM     88  O3  UNL A   1      19.019  25.464  -0.270  1.00  0.00    +0.000 O 
BRANCH   87   89
ATOM    133  H38 UNL A   1      19.499  22.892  -1.851  1.00  0.00    +0.000 H 
ATOM    134  H39 UNL A   1      18.149  21.286  -3.091  1.00  0.00    +0.000 H 
ATOM    135  H40 UNL A   1      15.174  24.209  -3.659  1.00  0.00    +0.000 H 
ATOM    136  H41 UNL A   1      16.540  25.831  -2.467  1.00  0.00    +0.000 H 
ATOM     89  C64 UNL A   1      18.151  24.498  -2.144  1.00  0.00    +0.000 C 
ATOM     90  C65 UNL A   1      18.599  23.180  -2.268  1.00  0.00    +0.000 C 
ATOM     91  C66 UNL A   1      17.815  22.254  -2.964  1.00  0.00    +0.000 C 
ATOM     92  C67 UNL A   1      16.579  22.642  -3.485  1.00  0.00    +0.000 C 
ATOM     93 Cl1  UNL A   1      15.639  21.514  -4.381  1.00  0.00    +0.000 Cl
ATOM     94  C68 UNL A   1      16.103  23.940  -3.297  1.00  0.00    +0.000 C 
ATOM     95  C69 UNL A   1      16.888  24.872  -2.619  1.00  0.00    +0.000 C 
ENDBRANCH   87   89
ENDBRANCH   86   87
ENDBRANCH    4    3
ENDBRANCH    5    4
ENDBRANCH    7    5
ENDBRANCH    8    7
ENDBRANCH    9    8
ENDBRANCH   10    9
ENDBRANCH   11   10
ENDBRANCH   12   11
ENDBRANCH   13   12
ENDBRANCH   14   13
ENDBRANCH   15   14
ENDBRANCH   17   15
ENDBRANCH   21   20
BRANCH   25   26
ATOM     33  C25 UNL A   1      20.751  11.360   4.939  1.00  0.00    +0.000 C 
ATOM     34  F4  UNL A   1      19.656  10.597   4.818  1.00  0.00    +0.000 F 
ATOM     35  C26 UNL A   1      20.658  12.594   5.581  1.00  0.00    +0.000 C 
ATOM     36  F5  UNL A   1      19.427  12.938   5.972  1.00  0.00    +0.000 F 
ATOM     26  C21 UNL A   1      21.760  13.467   5.706  1.00  0.00    +0.000 C 
ATOM     27  C22 UNL A   1      22.973  12.991   5.165  1.00  0.00    +0.000 C 
ATOM     28  F1  UNL A   1      24.085  13.741   5.212  1.00  0.00    +0.000 F 
ATOM     29  C23 UNL A   1      23.051  11.776   4.478  1.00  0.00    +0.000 C 
ATOM     30  F2  UNL A   1      24.193  11.427   3.871  1.00  0.00    +0.000 F 
ATOM     31  C24 UNL A   1      21.937  10.966   4.358  1.00  0.00    +0.000 C 
ATOM     32  F3  UNL A   1      21.992   9.833   3.645  1.00  0.00    +0.000 F 
ENDBRANCH   25   26
BRANCH   42   43
ATOM     43  C32 UNL A   1      24.322  18.062  10.102  1.00  0.00    +0.000 C 
ATOM     44  C33 UNL A   1      24.261  18.028  11.506  1.00  0.00    +0.000 C 
ATOM     45  F6  UNL A   1      24.078  16.872  12.159  1.00  0.00    +0.000 F 
ATOM     46  C34 UNL A   1      24.451  19.184  12.264  1.00  0.00    +0.000 C 
ATOM     47  F7  UNL A   1      24.385  19.131  13.603  1.00  0.00    +0.000 F 
ATOM     48  C35 UNL A   1      24.751  20.384  11.638  1.00  0.00    +0.000 C 
ATOM     49  F8  UNL A   1      24.985  21.484  12.366  1.00  0.00    +0.000 F 
ATOM     50  C36 UNL A   1      24.840  20.434  10.256  1.00  0.00    +0.000 C 
ATOM     51  F9  UNL A   1      25.180  21.579   9.648  1.00  0.00    +0.000 F 
ATOM     52  C37 UNL A   1      24.614  19.290   9.496  1.00  0.00    +0.000 C 
ATOM     53  F10 UNL A   1      24.737  19.368   8.162  1.00  0.00    +0.000 F 
ENDBRANCH   42   43
BRANCH   57   58
ATOM     65  C45 UNL A   1      31.756  18.108   6.658  1.00  0.00    +0.000 C 
ATOM     66  F14 UNL A   1      32.722  18.659   7.407  1.00  0.00    +0.000 F 
ATOM     67  C46 UNL A   1      30.456  18.021   7.159  1.00  0.00    +0.000 C 
ATOM     68  F15 UNL A   1      30.237  18.533   8.379  1.00  0.00    +0.000 F 
ATOM     58  C41 UNL A   1      29.392  17.519   6.385  1.00  0.00    +0.000 C 
ATOM     59  C42 UNL A   1      29.719  17.071   5.093  1.00  0.00    +0.000 C 
ATOM     60  F11 UNL A   1      28.758  16.615   4.275  1.00  0.00    +0.000 F 
ATOM     61  C43 UNL A   1      31.022  17.161   4.591  1.00  0.00    +0.000 C 
ATOM     62  F12 UNL A   1      31.280  16.788   3.329  1.00  0.00    +0.000 F 
ATOM     63  C44 UNL A   1      32.036  17.693   5.369  1.00  0.00    +0.000 C 
ATOM     64  F13 UNL A   1      33.269  17.846   4.864  1.00  0.00    +0.000 F 
ENDBRANCH   57   58
TORSDOF 19
ENDMDL
MODEL 10
REMARK VINA RESULT:     -10.8     31.324     37.611
ROOT
ATOM     21  C17 UNL A   1      19.568  26.814  -1.658  1.00  0.00    +0.000 C 
ATOM     22  C18 UNL A   1      18.384  25.911  -1.656  1.00  0.00    +0.000 C 
ATOM     23  N3  UNL A   1      18.199  24.851  -0.938  1.00  0.00    +0.000 N 
ATOM     24  C19 UNL A   1      16.949  24.356  -1.301  1.00  0.00    +0.000 C 
ATOM     25  C20 UNL A   1      16.611  23.056  -1.079  1.00  0.00    +0.000 C 
ATOM     37  C27 UNL A   1      17.451  22.464  -0.071  1.00  0.00    +0.000 C 
ATOM     38  C28 UNL A   1      17.646  22.670   1.280  1.00  0.00    +0.000 C 
ATOM     39  C29 UNL A   1      19.038  22.441   1.493  1.00  0.00    +0.000 C 
ATOM     40  C30 UNL A   1      19.599  22.056   0.276  1.00  0.00    +0.000 C 
ATOM     41  N4  UNL A   1      18.517  21.709  -0.489  1.00  0.00    +0.000 N 
ATOM     42  C31 UNL A   1      20.952  22.071  -0.224  1.00  0.00    +0.000 C 
ATOM     54  C38 UNL A   1      21.294  22.044  -1.544  1.00  0.00    +0.000 C 
ATOM     55  N5  UNL A   1      22.534  22.501  -1.964  1.00  0.00    +0.000 N 
ATOM     56  C39 UNL A   1      22.342  22.886  -3.195  1.00  0.00    +0.000 C 
ATOM     57  C40 UNL A   1      22.969  24.099  -3.777  1.00  0.00    +0.000 C 
ATOM     69  C47 UNL A   1      22.419  25.167  -3.143  1.00  0.00    +0.000 C 
ATOM     70  C48 UNL A   1      22.887  26.531  -3.021  1.00  0.00    +0.000 C 
ATOM     71  C49 UNL A   1      21.970  27.241  -2.330  1.00  0.00    +0.000 C 
ATOM     72  C50 UNL A   1      20.781  26.420  -2.100  1.00  0.00    +0.000 C 
ATOM     73  N6  UNL A   1      21.161  25.159  -2.510  1.00  0.00    +0.000 N 
ATOM     74  C51 UNL A   1      21.147  22.367  -3.841  1.00  0.00    +0.000 C 
ATOM     75  C52 UNL A   1      20.496  21.929  -2.761  1.00  0.00    +0.000 C 
ATOM     76  C53 UNL A   1      16.325  25.374  -2.105  1.00  0.00    +0.000 C 
ATOM     77  C54 UNL A   1      17.200  26.327  -2.424  1.00  0.00    +0.000 C 
ATOM    117  H22 UNL A   1      16.939  22.932   1.984  1.00  0.00    +0.000 H 
ATOM    118  H23 UNL A   1      19.540  22.544   2.389  1.00  0.00    +0.000 H 
ATOM    119  H24 UNL A   1      18.506  21.039  -1.210  1.00  0.00    +0.000 H 
ATOM    120  H25 UNL A   1      23.774  26.899  -3.399  1.00  0.00    +0.000 H 
ATOM    121  H26 UNL A   1      22.089  28.216  -2.013  1.00  0.00    +0.000 H 
ATOM    122  H27 UNL A   1      20.616  24.349  -2.376  1.00  0.00    +0.000 H 
ATOM    123  H28 UNL A   1      20.881  22.345  -4.838  1.00  0.00    +0.000 H 
ATOM    124  H29 UNL A   1      19.537  21.550  -2.784  1.00  0.00    +0.000 H 
ATOM    125  H30 UNL A   1      15.334  25.366  -2.394  1.00  0.00    +0.000 H 
ATOM    126  H31 UNL A   1      17.080  27.143  -3.045  1.00  0.00    +0.000 H 
ENDROOT
BRANCH   21   20
ATOM     78  C55 UNL A   1      18.950  29.192  -2.050  1.00  0.00    +0.000 C 
ATOM     79  C56 UNL A   1      18.756  30.469  -1.541  1.00  0.00    +0.000 C 
ATOM     17  C13 UNL A   1      18.873  30.730  -0.161  1.00  0.00    +0.000 C 
ATOM     18  C14 UNL A   1      19.052  29.655   0.706  1.00  0.00    +0.000 C 
ATOM     19  C15 UNL A   1      19.280  28.380   0.201  1.00  0.00    +0.000 C 
ATOM    115  H20 UNL A   1      19.017  29.804   1.726  1.00  0.00    +0.000 H 
ATOM    116  H21 UNL A   1      19.443  27.592   0.847  1.00  0.00    +0.000 H 
ATOM     20  C16 UNL A   1      19.288  28.164  -1.180  1.00  0.00    +0.000 C 
ATOM    127  H32 UNL A   1      18.844  29.008  -3.061  1.00  0.00    +0.000 H 
ATOM    128  H33 UNL A   1      18.525  31.240  -2.185  1.00  0.00    +0.000 H 
BRANCH   17   15
ATOM     15  C12 UNL A   1      18.892  32.167   0.223  1.00  0.00    +0.000 C 
ATOM     16  O2  UNL A   1      19.714  32.911  -0.316  1.00  0.00    +0.000 O 
BRANCH   15   14
ATOM    114  H19 UNL A   1      18.423  33.631   1.450  1.00  0.00    +0.000 H 
ATOM     14  N2  UNL A   1      18.118  32.730   1.200  1.00  0.00    +0.000 N 
BRANCH   14   13
ATOM    113  H18 UNL A   1      16.813  33.017   2.738  1.00  0.00    +0.000 H 
ATOM     13  C11 UNL A   1      16.953  32.308   1.950  1.00  0.00    +0.000 C 
ATOM    112  H17 UNL A   1      17.130  31.319   2.319  1.00  0.00    +0.000 H 
BRANCH   13   12
ATOM     12  C10 UNL A   1      15.666  32.293   1.125  1.00  0.00    +0.000 C 
ATOM    110  H15 UNL A   1      15.729  33.067   0.389  1.00  0.00    +0.000 H 
ATOM    111  H16 UNL A   1      15.588  31.318   0.691  1.00  0.00    +0.000 H 
BRANCH   12   11
ATOM     11  C9  UNL A   1      14.392  32.513   1.948  1.00  0.00    +0.000 C 
ATOM    108  H13 UNL A   1      14.550  32.097   2.921  1.00  0.00    +0.000 H 
ATOM    109  H14 UNL A   1      14.223  33.569   1.959  1.00  0.00    +0.000 H 
BRANCH   11   10
ATOM     10  C8  UNL A   1      13.125  31.882   1.362  1.00  0.00    +0.000 C 
ATOM    107  H12 UNL A   1      12.637  31.377   2.170  1.00  0.00    +0.000 H 
ATOM    106  H11 UNL A   1      13.415  31.224   0.570  1.00  0.00    +0.000 H 
BRANCH   10    9
ATOM      9  C7  UNL A   1      12.108  32.884   0.802  1.00  0.00    +0.000 C 
ATOM    105  H10 UNL A   1      12.260  32.933  -0.255  1.00  0.00    +0.000 H 
ATOM    104  H9  UNL A   1      12.268  33.831   1.276  1.00  0.00    +0.000 H 
BRANCH    9    8
ATOM    102  H7  UNL A   1      10.628  31.423   1.274  1.00  0.00    +0.000 H 
ATOM    103  H8  UNL A   1      10.261  33.051   1.837  1.00  0.00    +0.000 H 
ATOM      8  C6  UNL A   1      10.656  32.465   1.033  1.00  0.00    +0.000 C 
BRANCH    8    7
ATOM    101  H6  UNL A   1       8.902  32.931   0.024  1.00  0.00    +0.000 H 
ATOM      7  N1  UNL A   1       9.844  32.699  -0.144  1.00  0.00    +0.000 N 
BRANCH    7    5
ATOM      5  C5  UNL A   1      10.218  32.639  -1.456  1.00  0.00    +0.000 C 
ATOM      6  O1  UNL A   1      10.522  33.688  -2.028  1.00  0.00    +0.000 O 
BRANCH    5    4
ATOM    100  H5  UNL A   1      10.541  31.496  -3.189  1.00  0.00    +0.000 H 
ATOM     99  H4  UNL A   1       9.182  30.940  -2.185  1.00  0.00    +0.000 H 
ATOM      4  C4  UNL A   1      10.187  31.310  -2.197  1.00  0.00    +0.000 C 
BRANCH    4    3
ATOM    129  H34 UNL A   1      13.091  31.881  -2.915  1.00  0.00    +0.000 H 
ATOM      2  C2  UNL A   1      10.710  29.163  -0.840  1.00  0.00    +0.000 C 
ATOM      3  C3  UNL A   1      11.085  30.263  -1.599  1.00  0.00    +0.000 C 
ATOM    132  H37 UNL A   1      14.654  27.827  -0.743  1.00  0.00    +0.000 H 
ATOM    130  H35 UNL A   1      15.454  31.343  -2.898  1.00  0.00    +0.000 H 
ATOM    131  H36 UNL A   1      16.223  29.314  -1.847  1.00  0.00    +0.000 H 
ATOM     80  C57 UNL A   1      12.498  30.206  -1.748  1.00  0.00    +0.000 C 
ATOM     81  C58 UNL A   1      13.422  31.036  -2.424  1.00  0.00    +0.000 C 
ATOM     82  C59 UNL A   1      14.779  30.716  -2.434  1.00  0.00    +0.000 C 
ATOM     83  C60 UNL A   1      15.219  29.557  -1.820  1.00  0.00    +0.000 C 
ATOM     84  C61 UNL A   1      14.321  28.709  -1.165  1.00  0.00    +0.000 C 
ATOM     85  C62 UNL A   1      12.959  29.065  -1.081  1.00  0.00    +0.000 C 
ATOM     86  N7  UNL A   1      11.867  28.499  -0.403  1.00  0.00    +0.000 N 
BRANCH    2    1
ATOM      1  C1  UNL A   1       9.329  28.721  -0.460  1.00  0.00    +0.000 C 
ATOM     98  H3  UNL A   1       8.647  29.535  -0.589  1.00  0.00    +0.000 H 
ATOM     97  H2  UNL A   1       9.033  27.904  -1.082  1.00  0.00    +0.000 H 
ATOM     96  H1  UNL A   1       9.325  28.411   0.565  1.00  0.00    +0.000 H 
ENDBRANCH    2    1
BRANCH   86   87
ATOM     87  C63 UNL A   1      11.890  27.450   0.566  1.00  0.00    +0.000 C 
ATOM     88  O3  UNL A   1      11.981  27.739   1.754  1.00  0.00    +0.000 O 
BRANCH   87   89
ATOM    133  H38 UNL A   1      13.379  25.950  -1.137  1.00  0.00    +0.000 H 
ATOM    134  H39 UNL A   1      13.063  23.594  -1.670  1.00  0.00    +0.000 H 
ATOM    135  H40 UNL A   1      10.031  23.331   1.238  1.00  0.00    +0.000 H 
ATOM    136  H41 UNL A   1      10.307  25.695   1.739  1.00  0.00    +0.000 H 
ATOM     89  C64 UNL A   1      11.808  26.008   0.280  1.00  0.00    +0.000 C 
ATOM     90  C65 UNL A   1      12.644  25.402  -0.662  1.00  0.00    +0.000 C 
ATOM     91  C66 UNL A   1      12.474  24.045  -0.953  1.00  0.00    +0.000 C 
ATOM     92  C67 UNL A   1      11.507  23.303  -0.273  1.00  0.00    +0.000 C 
ATOM     93 Cl1  UNL A   1      11.268  21.646  -0.668  1.00  0.00    +0.000 Cl
ATOM     94  C68 UNL A   1      10.722  23.895   0.718  1.00  0.00    +0.000 C 
ATOM     95  C69 UNL A   1      10.876  25.251   1.001  1.00  0.00    +0.000 C 
ENDBRANCH   87   89
ENDBRANCH   86   87
ENDBRANCH    4    3
ENDBRANCH    5    4
ENDBRANCH    7    5
ENDBRANCH    8    7
ENDBRANCH    9    8
ENDBRANCH   10    9
ENDBRANCH   11   10
ENDBRANCH   12   11
ENDBRANCH   13   12
ENDBRANCH   14   13
ENDBRANCH   15   14
ENDBRANCH   17   15
ENDBRANCH   21   20
BRANCH   25   26
ATOM     33  C25 UNL A   1      15.532  21.008  -4.149  1.00  0.00    +0.000 C 
ATOM     34  F4  UNL A   1      15.911  20.853  -5.426  1.00  0.00    +0.000 F 
ATOM     35  C26 UNL A   1      16.101  22.026  -3.386  1.00  0.00    +0.000 C 
ATOM     36  F5  UNL A   1      17.049  22.736  -4.005  1.00  0.00    +0.000 F 
ATOM     26  C21 UNL A   1      15.781  22.220  -2.024  1.00  0.00    +0.000 C 
ATOM     27  C22 UNL A   1      14.821  21.331  -1.496  1.00  0.00    +0.000 C 
ATOM     28  F1  UNL A   1      14.450  21.410  -0.209  1.00  0.00    +0.000 F 
ATOM     29  C23 UNL A   1      14.291  20.280  -2.250  1.00  0.00    +0.000 C 
ATOM     30  F2  UNL A   1      13.481  19.385  -1.668  1.00  0.00    +0.000 F 
ATOM     31  C24 UNL A   1      14.655  20.114  -3.574  1.00  0.00    +0.000 C 
ATOM     32  F3  UNL A   1      14.199  19.071  -4.280  1.00  0.00    +0.000 F 
ENDBRANCH   25   26
BRANCH   42   43
ATOM     43  C32 UNL A   1      22.038  22.370   0.773  1.00  0.00    +0.000 C 
ATOM     44  C33 UNL A   1      22.357  23.666   1.216  1.00  0.00    +0.000 C 
ATOM     45  F6  UNL A   1      21.726  24.738   0.716  1.00  0.00    +0.000 F 
ATOM     46  C34 UNL A   1      23.292  23.872   2.231  1.00  0.00    +0.000 C 
ATOM     47  F7  UNL A   1      23.584  25.117   2.636  1.00  0.00    +0.000 F 
ATOM     48  C35 UNL A   1      23.890  22.789   2.854  1.00  0.00    +0.000 C 
ATOM     49  F8  UNL A   1      24.749  22.983   3.864  1.00  0.00    +0.000 F 
ATOM     50  C36 UNL A   1      23.572  21.502   2.451  1.00  0.00    +0.000 C 
ATOM     51  F9  UNL A   1      24.110  20.450   3.084  1.00  0.00    +0.000 F 
ATOM     52  C37 UNL A   1      22.668  21.295   1.413  1.00  0.00    +0.000 C 
ATOM     53  F10 UNL A   1      22.362  20.036   1.067  1.00  0.00    +0.000 F 
ENDBRANCH   42   43
BRANCH   57   58
ATOM     65  C45 UNL A   1      25.813  24.081  -6.287  1.00  0.00    +0.000 C 
ATOM     66  F14 UNL A   1      27.137  23.870  -6.280  1.00  0.00    +0.000 F 
ATOM     67  C46 UNL A   1      25.061  23.791  -5.148  1.00  0.00    +0.000 C 
ATOM     68  F15 UNL A   1      25.725  23.334  -4.078  1.00  0.00    +0.000 F 
ATOM     58  C41 UNL A   1      23.680  24.064  -5.079  1.00  0.00    +0.000 C 
ATOM     59  C42 UNL A   1      23.093  24.606  -6.235  1.00  0.00    +0.000 C 
ATOM     60  F11 UNL A   1      21.792  24.933  -6.242  1.00  0.00    +0.000 F 
ATOM     61  C43 UNL A   1      23.850  24.899  -7.376  1.00  0.00    +0.000 C 
ATOM     62  F12 UNL A   1      23.267  25.482  -8.434  1.00  0.00    +0.000 F 
ATOM     63  C44 UNL A   1      25.212  24.650  -7.395  1.00  0.00    +0.000 C 
ATOM     64  F13 UNL A   1      25.950  24.996  -8.459  1.00  0.00    +0.000 F 
ENDBRANCH   57   58
TORSDOF 19
ENDMDL
