MODEL 1
REMARK VINA RESULT:     -10.1      0.000      0.000
ROOT
ATOM     33  C25 UNL A   1      10.636   2.946  21.370  1.00  0.00    +0.000 C 
ATOM     34  C26 UNL A   1       9.718   3.862  22.123  1.00  0.00    +0.000 C 
ATOM     35  N5  UNL A   1       9.313   5.068  21.810  1.00  0.00    +0.000 N 
ATOM     36  C27 UNL A   1       8.451   5.454  22.827  1.00  0.00    +0.000 C 
ATOM     37  C28 UNL A   1       7.791   6.629  22.969  1.00  0.00    +0.000 C 
ATOM     49  C35 UNL A   1       7.888   7.730  22.046  1.00  0.00    +0.000 C 
ATOM     50  C36 UNL A   1       7.305   8.982  22.131  1.00  0.00    +0.000 C 
ATOM     51  C37 UNL A   1       7.632   9.696  20.973  1.00  0.00    +0.000 C 
ATOM     52  C38 UNL A   1       8.460   8.908  20.190  1.00  0.00    +0.000 C 
ATOM     53  N6  UNL A   1       8.609   7.704  20.860  1.00  0.00    +0.000 N 
ATOM     54  C39 UNL A   1       9.065   9.228  18.921  1.00  0.00    +0.000 C 
ATOM     66  C46 UNL A   1       9.891   8.412  18.221  1.00  0.00    +0.000 C 
ATOM     67  N7  UNL A   1      10.334   7.137  18.548  1.00  0.00    +0.000 N 
ATOM     68  C47 UNL A   1      11.113   6.764  17.563  1.00  0.00    +0.000 C 
ATOM     69  C48 UNL A   1      11.875   5.481  17.400  1.00  0.00    +0.000 C 
ATOM     81  C55 UNL A   1      11.835   4.562  18.381  1.00  0.00    +0.000 C 
ATOM     82  C56 UNL A   1      12.510   3.268  18.347  1.00  0.00    +0.000 C 
ATOM     83  C57 UNL A   1      12.136   2.555  19.419  1.00  0.00    +0.000 C 
ATOM     84  C58 UNL A   1      11.235   3.364  20.241  1.00  0.00    +0.000 C 
ATOM     85  N8  UNL A   1      11.162   4.563  19.578  1.00  0.00    +0.000 N 
ATOM     86  C59 UNL A   1      11.238   7.753  16.484  1.00  0.00    +0.000 C 
ATOM     87  C60 UNL A   1      10.492   8.748  16.946  1.00  0.00    +0.000 C 
ATOM     88  C61 UNL A   1       8.371   4.346  23.755  1.00  0.00    +0.000 C 
ATOM     89  C62 UNL A   1       9.172   3.354  23.389  1.00  0.00    +0.000 C 
ATOM    117  H26 UNL A   1       6.728   9.329  22.913  1.00  0.00    +0.000 H 
ATOM    118  H27 UNL A   1       7.311  10.649  20.741  1.00  0.00    +0.000 H 
ATOM    119  H28 UNL A   1       9.148   6.943  20.543  1.00  0.00    +0.000 H 
ATOM    120  H29 UNL A   1      13.169   2.954  17.618  1.00  0.00    +0.000 H 
ATOM    121  H30 UNL A   1      12.433   1.590  19.630  1.00  0.00    +0.000 H 
ATOM    122  H31 UNL A   1      10.675   5.347  19.925  1.00  0.00    +0.000 H 
ATOM    123  H32 UNL A   1      11.766   7.690  15.600  1.00  0.00    +0.000 H 
ATOM    124  H33 UNL A   1      10.357   9.648  16.459  1.00  0.00    +0.000 H 
ATOM    125  H34 UNL A   1       7.769   4.330  24.594  1.00  0.00    +0.000 H 
ATOM    126  H35 UNL A   1       9.361   2.460  23.868  1.00  0.00    +0.000 H 
ENDROOT
BRANCH   33   32
ATOM    127  H36 UNL A   1       9.158   0.749  20.880  1.00  0.00    +0.000 H 
ATOM     32  C24 UNL A   1      10.865   1.557  21.836  1.00  0.00    +0.000 C 
ATOM    115  H24 UNL A   1      13.118  -0.309  23.484  1.00  0.00    +0.000 H 
ATOM    116  H25 UNL A   1      12.644   1.995  22.893  1.00  0.00    +0.000 H 
ATOM     90  C63 UNL A   1       9.977   0.532  21.469  1.00  0.00    +0.000 C 
ATOM     91  C64 UNL A   1      10.198  -0.777  21.899  1.00  0.00    +0.000 C 
ATOM     29  C21 UNL A   1      11.323  -1.075  22.672  1.00  0.00    +0.000 C 
ATOM     30  C22 UNL A   1      12.249  -0.073  22.979  1.00  0.00    +0.000 C 
ATOM     31  C23 UNL A   1      11.997   1.245  22.604  1.00  0.00    +0.000 C 
ATOM    128  H37 UNL A   1       9.531  -1.523  21.646  1.00  0.00    +0.000 H 
BRANCH   29    2
ATOM      1  O1  UNL A   1      12.246  -3.218  22.447  1.00  0.00    +0.000 O 
ATOM      2  C1  UNL A   1      11.533  -2.470  23.112  1.00  0.00    +0.000 C 
BRANCH    2    3
ATOM      3  N1  UNL A   1      10.926  -2.933  24.252  1.00  0.00    +0.000 N 
ATOM     92  H1  UNL A   1      11.032  -3.897  24.423  1.00  0.00    +0.000 H 
BRANCH    3    4
ATOM      4  C2  UNL A   1      10.149  -2.206  25.241  1.00  0.00    +0.000 C 
ATOM     93  H2  UNL A   1       9.137  -2.550  25.202  1.00  0.00    +0.000 H 
ATOM     94  H3  UNL A   1      10.219  -1.165  25.009  1.00  0.00    +0.000 H 
BRANCH    4    5
ATOM      5  C3  UNL A   1      10.681  -2.405  26.657  1.00  0.00    +0.000 C 
ATOM     95  H4  UNL A   1      10.138  -3.212  27.104  1.00  0.00    +0.000 H 
ATOM     96  H5  UNL A   1      10.546  -1.470  27.159  1.00  0.00    +0.000 H 
BRANCH    5    6
ATOM     97  H6  UNL A   1      12.455  -3.246  25.858  1.00  0.00    +0.000 H 
ATOM     98  H7  UNL A   1      12.292  -3.308  27.642  1.00  0.00    +0.000 H 
ATOM      6  C4  UNL A   1      12.173  -2.728  26.751  1.00  0.00    +0.000 C 
BRANCH    6    7
ATOM     99  H8  UNL A   1      13.753  -1.714  27.737  1.00  0.00    +0.000 H 
ATOM    100  H9  UNL A   1      12.461  -0.676  27.050  1.00  0.00    +0.000 H 
ATOM      7  C5  UNL A   1      13.102  -1.520  26.910  1.00  0.00    +0.000 C 
BRANCH    7    8
ATOM    101  H10 UNL A   1      13.323  -1.004  24.862  1.00  0.00    +0.000 H 
ATOM    102  H11 UNL A   1      14.617  -2.030  25.553  1.00  0.00    +0.000 H 
ATOM      8  C6  UNL A   1      13.972  -1.189  25.693  1.00  0.00    +0.000 C 
BRANCH    8    9
ATOM      9  C7  UNL A   1      14.886   0.023  25.859  1.00  0.00    +0.000 C 
ATOM    103  H12 UNL A   1      15.595   0.033  25.057  1.00  0.00    +0.000 H 
ATOM    104  H13 UNL A   1      15.376  -0.061  26.807  1.00  0.00    +0.000 H 
BRANCH    9   10
ATOM    105  H14 UNL A   1      13.956   1.643  24.953  1.00  0.00    +0.000 H 
ATOM     10  N2  UNL A   1      14.145   1.271  25.845  1.00  0.00    +0.000 N 
BRANCH   10   11
ATOM     11  C8  UNL A   1      13.673   2.003  26.904  1.00  0.00    +0.000 C 
ATOM     12  O2  UNL A   1      14.455   2.533  27.685  1.00  0.00    +0.000 O 
BRANCH   11   13
ATOM    106  H15 UNL A   1      11.718   0.902  25.480  1.00  0.00    +0.000 H 
ATOM    107  H16 UNL A   1       9.321   1.111  25.808  1.00  0.00    +0.000 H 
ATOM    108  H17 UNL A   1       8.458   2.475  27.610  1.00  0.00    +0.000 H 
ATOM     13  C9  UNL A   1      12.217   2.154  27.107  1.00  0.00    +0.000 C 
ATOM     14  C10 UNL A   1      11.347   1.484  26.247  1.00  0.00    +0.000 C 
ATOM     15  C11 UNL A   1       9.974   1.609  26.432  1.00  0.00    +0.000 C 
ATOM     16  C12 UNL A   1       9.478   2.409  27.468  1.00  0.00    +0.000 C 
ATOM     17  C13 UNL A   1      10.338   3.123  28.313  1.00  0.00    +0.000 C 
ATOM    114  H23 UNL A   1      12.372   3.507  28.721  1.00  0.00    +0.000 H 
ATOM     28  C20 UNL A   1      11.717   2.987  28.117  1.00  0.00    +0.000 C 
BRANCH   17   18
ATOM     18  N3  UNL A   1       9.889   3.912  29.396  1.00  0.00    +0.000 N 
ATOM    109  H18 UNL A   1       8.952   3.771  29.667  1.00  0.00    +0.000 H 
BRANCH   18   19
ATOM    110  H19 UNL A   1      10.833   3.632  31.831  1.00  0.00    +0.000 H 
ATOM    111  H20 UNL A   1      12.228   5.182  33.067  1.00  0.00    +0.000 H 
ATOM    112  H21 UNL A   1      11.955   7.947  29.903  1.00  0.00    +0.000 H 
ATOM    113  H22 UNL A   1      10.567   6.387  28.669  1.00  0.00    +0.000 H 
ATOM     19  C14 UNL A   1      10.602   4.872  30.138  1.00  0.00    +0.000 C 
ATOM     20  C15 UNL A   1      11.078   4.543  31.413  1.00  0.00    +0.000 C 
ATOM     21  C16 UNL A   1      11.882   5.435  32.128  1.00  0.00    +0.000 C 
ATOM     22  C17 UNL A   1      12.216   6.671  31.567  1.00  0.00    +0.000 C 
ATOM     26  C18 UNL A   1      11.726   7.026  30.308  1.00  0.00    +0.000 C 
ATOM     27  C19 UNL A   1      10.925   6.125  29.601  1.00  0.00    +0.000 C 
BRANCH   22   23
ATOM     25  O4  UNL A   1      14.155   8.174  31.650  1.00  0.00    +0.000 O 
ATOM     23  N4  UNL A   1      13.091   7.573  32.280  1.00  0.00    +0.000 N 
ATOM     24  O3  UNL A   1      12.926   7.801  33.460  1.00  0.00    +0.000 O 
ENDBRANCH   22   23
ENDBRANCH   18   19
ENDBRANCH   17   18
ENDBRANCH   11   13
ENDBRANCH   10   11
ENDBRANCH    9   10
ENDBRANCH    8    9
ENDBRANCH    7    8
ENDBRANCH    6    7
ENDBRANCH    5    6
ENDBRANCH    4    5
ENDBRANCH    3    4
ENDBRANCH    2    3
ENDBRANCH   29    2
ENDBRANCH   33   32
BRANCH   37   38
ATOM     38  C29 UNL A   1       6.881   6.773  24.154  1.00  0.00    +0.000 C 
ATOM     39  C30 UNL A   1       7.292   7.416  25.330  1.00  0.00    +0.000 C 
ATOM     40  F1  UNL A   1       8.541   7.899  25.434  1.00  0.00    +0.000 F 
ATOM     41  C31 UNL A   1       6.435   7.530  26.422  1.00  0.00    +0.000 C 
ATOM     42  F2  UNL A   1       6.869   8.103  27.555  1.00  0.00    +0.000 F 
ATOM     43  C32 UNL A   1       5.142   7.035  26.349  1.00  0.00    +0.000 C 
ATOM     44  F3  UNL A   1       4.321   7.144  27.402  1.00  0.00    +0.000 F 
ATOM     45  C33 UNL A   1       4.706   6.418  25.188  1.00  0.00    +0.000 C 
ATOM     46  F4  UNL A   1       3.452   5.949  25.109  1.00  0.00    +0.000 F 
ATOM     47  C34 UNL A   1       5.569   6.278  24.103  1.00  0.00    +0.000 C 
ATOM     48  F5  UNL A   1       5.121   5.660  23.000  1.00  0.00    +0.000 F 
ENDBRANCH   37   38
BRANCH   54   55
ATOM     65  F10 UNL A   1      10.672  11.508  19.451  1.00  0.00    +0.000 F 
ATOM     55  C40 UNL A   1       8.781  10.581  18.341  1.00  0.00    +0.000 C 
ATOM     56  C41 UNL A   1       7.667  10.808  17.521  1.00  0.00    +0.000 C 
ATOM     57  F6  UNL A   1       6.869   9.789  17.169  1.00  0.00    +0.000 F 
ATOM     58  C42 UNL A   1       7.383  12.084  17.041  1.00  0.00    +0.000 C 
ATOM     59  F7  UNL A   1       6.329  12.276  16.236  1.00  0.00    +0.000 F 
ATOM     60  C43 UNL A   1       8.191  13.156  17.391  1.00  0.00    +0.000 C 
ATOM     61  F8  UNL A   1       7.907  14.386  16.941  1.00  0.00    +0.000 F 
ATOM     62  C44 UNL A   1       9.296  12.953  18.205  1.00  0.00    +0.000 C 
ATOM     63  F9  UNL A   1      10.071  13.990  18.553  1.00  0.00    +0.000 F 
ATOM     64  C45 UNL A   1       9.596  11.676  18.667  1.00  0.00    +0.000 C 
ENDBRANCH   54   55
BRANCH   69   70
ATOM     70  C49 UNL A   1      12.673   5.198  16.182  1.00  0.00    +0.000 C 
ATOM     71  C50 UNL A   1      14.030   5.536  16.115  1.00  0.00    +0.000 C 
ATOM     72  F11 UNL A   1      14.605   6.197  17.130  1.00  0.00    +0.000 F 
ATOM     73  C51 UNL A   1      14.797   5.205  15.000  1.00  0.00    +0.000 C 
ATOM     74  F12 UNL A   1      16.090   5.554  14.953  1.00  0.00    +0.000 F 
ATOM     75  C52 UNL A   1      14.227   4.513  13.942  1.00  0.00    +0.000 C 
ATOM     76  F13 UNL A   1      14.972   4.176  12.880  1.00  0.00    +0.000 F 
ATOM     77  C53 UNL A   1      12.884   4.169  13.987  1.00  0.00    +0.000 C 
ATOM     78  F14 UNL A   1      12.334   3.484  12.975  1.00  0.00    +0.000 F 
ATOM     79  C54 UNL A   1      12.110   4.521  15.090  1.00  0.00    +0.000 C 
ATOM     80  F15 UNL A   1      10.817   4.167  15.113  1.00  0.00    +0.000 F 
ENDBRANCH   69   70
TORSDOF 18
ENDMDL
MODEL 2
REMARK VINA RESULT:     -10.0     35.584     42.342
ROOT
ATOM     33  C25 UNL A   1      25.913  35.800  45.341  1.00  0.00    +0.000 C 
ATOM     34  C26 UNL A   1      27.234  35.729  44.635  1.00  0.00    +0.000 C 
ATOM     35  N5  UNL A   1      28.287  36.496  44.770  1.00  0.00    +0.000 N 
ATOM     36  C27 UNL A   1      29.246  35.978  43.911  1.00  0.00    +0.000 C 
ATOM     37  C28 UNL A   1      30.499  36.435  43.675  1.00  0.00    +0.000 C 
ATOM     49  C35 UNL A   1      31.068  37.601  44.302  1.00  0.00    +0.000 C 
ATOM     50  C36 UNL A   1      32.307  38.180  44.088  1.00  0.00    +0.000 C 
ATOM     51  C37 UNL A   1      32.444  39.258  44.969  1.00  0.00    +0.000 C 
ATOM     52  C38 UNL A   1      31.271  39.383  45.696  1.00  0.00    +0.000 C 
ATOM     53  N6  UNL A   1      30.435  38.360  45.277  1.00  0.00    +0.000 N 
ATOM     54  C39 UNL A   1      30.941  40.360  46.704  1.00  0.00    +0.000 C 
ATOM     66  C46 UNL A   1      29.757  40.437  47.359  1.00  0.00    +0.000 C 
ATOM     67  N7  UNL A   1      28.633  39.636  47.217  1.00  0.00    +0.000 N 
ATOM     68  C47 UNL A   1      27.747  40.106  48.061  1.00  0.00    +0.000 C 
ATOM     69  C48 UNL A   1      26.347  39.632  48.317  1.00  0.00    +0.000 C 
ATOM     81  C55 UNL A   1      25.849  38.620  47.584  1.00  0.00    +0.000 C 
ATOM     82  C56 UNL A   1      24.514  38.048  47.739  1.00  0.00    +0.000 C 
ATOM     83  C57 UNL A   1      24.411  36.969  46.950  1.00  0.00    +0.000 C 
ATOM     84  C58 UNL A   1      25.654  36.806  46.197  1.00  0.00    +0.000 C 
ATOM     85  N8  UNL A   1      26.429  37.867  46.593  1.00  0.00    +0.000 N 
ATOM     86  C59 UNL A   1      28.218  41.250  48.854  1.00  0.00    +0.000 C 
ATOM     87  C60 UNL A   1      29.440  41.426  48.370  1.00  0.00    +0.000 C 
ATOM     88  C61 UNL A   1      28.660  34.816  43.277  1.00  0.00    +0.000 C 
ATOM     89  C62 UNL A   1      27.401  34.645  43.656  1.00  0.00    +0.000 C 
ATOM    117  H26 UNL A   1      33.008  37.869  43.398  1.00  0.00    +0.000 H 
ATOM    118  H27 UNL A   1      33.277  39.859  45.061  1.00  0.00    +0.000 H 
ATOM    119  H28 UNL A   1      29.527  38.196  45.620  1.00  0.00    +0.000 H 
ATOM    120  H29 UNL A   1      23.772  38.416  48.353  1.00  0.00    +0.000 H 
ATOM    121  H30 UNL A   1      23.587  36.351  46.885  1.00  0.00    +0.000 H 
ATOM    122  H31 UNL A   1      27.312  38.069  46.205  1.00  0.00    +0.000 H 
ATOM    123  H32 UNL A   1      27.727  41.777  49.592  1.00  0.00    +0.000 H 
ATOM    124  H33 UNL A   1      30.084  42.172  48.675  1.00  0.00    +0.000 H 
ATOM    125  H34 UNL A   1      29.158  34.200  42.615  1.00  0.00    +0.000 H 
ATOM    126  H35 UNL A   1      26.718  33.937  43.346  1.00  0.00    +0.000 H 
ENDROOT
BRANCH   33   32
ATOM    127  H36 UNL A   1      23.903  35.739  43.551  1.00  0.00    +0.000 H 
ATOM     32  C24 UNL A   1      24.890  34.746  45.138  1.00  0.00    +0.000 C 
ATOM    115  H24 UNL A   1      24.071  31.662  46.184  1.00  0.00    +0.000 H 
ATOM    116  H25 UNL A   1      25.623  33.466  46.655  1.00  0.00    +0.000 H 
ATOM     90  C63 UNL A   1      23.913  34.891  44.140  1.00  0.00    +0.000 C 
ATOM     91  C64 UNL A   1      22.957  33.895  43.942  1.00  0.00    +0.000 C 
ATOM     29  C21 UNL A   1      22.989  32.735  44.719  1.00  0.00    +0.000 C 
ATOM     30  C22 UNL A   1      24.003  32.553  45.665  1.00  0.00    +0.000 C 
ATOM     31  C23 UNL A   1      24.920  33.573  45.907  1.00  0.00    +0.000 C 
ATOM    128  H37 UNL A   1      22.227  34.015  43.222  1.00  0.00    +0.000 H 
BRANCH   29    2
ATOM      1  O1  UNL A   1      22.216  30.522  44.752  1.00  0.00    +0.000 O 
ATOM      2  C1  UNL A   1      21.964  31.695  44.487  1.00  0.00    +0.000 C 
BRANCH    2    3
ATOM      3  N1  UNL A   1      20.742  32.035  43.967  1.00  0.00    +0.000 N 
ATOM     92  H1  UNL A   1      20.630  31.859  43.005  1.00  0.00    +0.000 H 
BRANCH    3    4
ATOM      4  C2  UNL A   1      19.589  32.617  44.632  1.00  0.00    +0.000 C 
ATOM     93  H2  UNL A   1      19.898  33.004  45.580  1.00  0.00    +0.000 H 
ATOM     94  H3  UNL A   1      18.854  31.848  44.743  1.00  0.00    +0.000 H 
BRANCH    4    5
ATOM      5  C3  UNL A   1      18.961  33.747  43.822  1.00  0.00    +0.000 C 
ATOM     95  H4  UNL A   1      19.002  33.475  42.786  1.00  0.00    +0.000 H 
ATOM     96  H5  UNL A   1      19.523  34.628  44.053  1.00  0.00    +0.000 H 
BRANCH    5    6
ATOM     97  H6  UNL A   1      17.429  35.120  44.331  1.00  0.00    +0.000 H 
ATOM     98  H7  UNL A   1      17.276  33.478  45.035  1.00  0.00    +0.000 H 
ATOM      6  C4  UNL A   1      17.506  34.065  44.170  1.00  0.00    +0.000 C 
BRANCH    6    7
ATOM     99  H8  UNL A   1      16.026  34.572  42.739  1.00  0.00    +0.000 H 
ATOM    100  H9  UNL A   1      15.784  33.018  43.602  1.00  0.00    +0.000 H 
ATOM      7  C5  UNL A   1      16.472  33.673  43.110  1.00  0.00    +0.000 C 
BRANCH    7    8
ATOM    101  H10 UNL A   1      18.082  32.986  41.908  1.00  0.00    +0.000 H 
ATOM    102  H11 UNL A   1      16.546  33.304  41.047  1.00  0.00    +0.000 H 
ATOM      8  C6  UNL A   1      17.016  32.888  41.912  1.00  0.00    +0.000 C 
BRANCH    8    9
ATOM      9  C7  UNL A   1      16.678  31.399  41.903  1.00  0.00    +0.000 C 
ATOM    103  H12 UNL A   1      17.306  30.907  41.190  1.00  0.00    +0.000 H 
ATOM    104  H13 UNL A   1      15.644  31.297  41.644  1.00  0.00    +0.000 H 
BRANCH    9   10
ATOM    105  H14 UNL A   1      16.634  31.345  43.978  1.00  0.00    +0.000 H 
ATOM     10  N2  UNL A   1      16.876  30.786  43.205  1.00  0.00    +0.000 N 
BRANCH   10   11
ATOM     11  C8  UNL A   1      17.354  29.537  43.504  1.00  0.00    +0.000 C 
ATOM     12  O2  UNL A   1      18.524  29.387  43.839  1.00  0.00    +0.000 O 
BRANCH   11   13
ATOM    106  H15 UNL A   1      16.661  27.891  45.471  1.00  0.00    +0.000 H 
ATOM    107  H16 UNL A   1      15.172  25.976  45.371  1.00  0.00    +0.000 H 
ATOM    108  H17 UNL A   1      14.127  25.360  43.278  1.00  0.00    +0.000 H 
ATOM     13  C9  UNL A   1      16.458  28.364  43.422  1.00  0.00    +0.000 C 
ATOM     14  C10 UNL A   1      16.215  27.625  44.579  1.00  0.00    +0.000 C 
ATOM     15  C11 UNL A   1      15.366  26.525  44.520  1.00  0.00    +0.000 C 
ATOM     16  C12 UNL A   1      14.773  26.163  43.305  1.00  0.00    +0.000 C 
ATOM     17  C13 UNL A   1      15.042  26.869  42.124  1.00  0.00    +0.000 C 
ATOM    114  H23 UNL A   1      16.116  28.509  41.343  1.00  0.00    +0.000 H 
ATOM     28  C20 UNL A   1      15.896  27.975  42.198  1.00  0.00    +0.000 C 
BRANCH   17   18
ATOM     18  N3  UNL A   1      14.439  26.569  40.882  1.00  0.00    +0.000 N 
ATOM    109  H18 UNL A   1      13.886  27.285  40.492  1.00  0.00    +0.000 H 
BRANCH   18   19
ATOM    110  H19 UNL A   1      15.421  26.313  38.460  1.00  0.00    +0.000 H 
ATOM    111  H20 UNL A   1      15.762  24.265  37.208  1.00  0.00    +0.000 H 
ATOM    112  H21 UNL A   1      13.973  22.066  40.322  1.00  0.00    +0.000 H 
ATOM    113  H22 UNL A   1      13.643  24.118  41.571  1.00  0.00    +0.000 H 
ATOM     19  C14 UNL A   1      14.523  25.383  40.129  1.00  0.00    +0.000 C 
ATOM     20  C15 UNL A   1      15.122  25.411  38.863  1.00  0.00    +0.000 C 
ATOM     21  C16 UNL A   1      15.319  24.232  38.140  1.00  0.00    +0.000 C 
ATOM     22  C17 UNL A   1      14.914  23.008  38.682  1.00  0.00    +0.000 C 
ATOM     26  C18 UNL A   1      14.291  22.966  39.931  1.00  0.00    +0.000 C 
ATOM     27  C19 UNL A   1      14.101  24.151  40.647  1.00  0.00    +0.000 C 
BRANCH   22   23
ATOM     25  O4  UNL A   1      14.304  20.716  38.055  1.00  0.00    +0.000 O 
ATOM     23  N4  UNL A   1      15.166  21.783  37.960  1.00  0.00    +0.000 N 
ATOM     24  O3  UNL A   1      16.158  21.653  37.274  1.00  0.00    +0.000 O 
ENDBRANCH   22   23
ENDBRANCH   18   19
ENDBRANCH   17   18
ENDBRANCH   11   13
ENDBRANCH   10   11
ENDBRANCH    9   10
ENDBRANCH    8    9
ENDBRANCH    7    8
ENDBRANCH    6    7
ENDBRANCH    5    6
ENDBRANCH    4    5
ENDBRANCH    3    4
ENDBRANCH    2    3
ENDBRANCH   29    2
ENDBRANCH   33   32
BRANCH   37   38
ATOM     38  C29 UNL A   1      31.353  35.656  42.718  1.00  0.00    +0.000 C 
ATOM     39  C30 UNL A   1      31.436  35.990  41.358  1.00  0.00    +0.000 C 
ATOM     40  F1  UNL A   1      30.718  37.014  40.870  1.00  0.00    +0.000 F 
ATOM     41  C31 UNL A   1      32.226  35.247  40.484  1.00  0.00    +0.000 C 
ATOM     42  F2  UNL A   1      32.248  35.553  39.179  1.00  0.00    +0.000 F 
ATOM     43  C32 UNL A   1      32.974  34.179  40.957  1.00  0.00    +0.000 C 
ATOM     44  F3  UNL A   1      33.731  33.465  40.113  1.00  0.00    +0.000 F 
ATOM     45  C33 UNL A   1      32.927  33.846  42.301  1.00  0.00    +0.000 C 
ATOM     46  F4  UNL A   1      33.658  32.822  42.763  1.00  0.00    +0.000 F 
ATOM     47  C34 UNL A   1      32.117  34.570  43.173  1.00  0.00    +0.000 C 
ATOM     48  F5  UNL A   1      32.080  34.212  44.465  1.00  0.00    +0.000 F 
ENDBRANCH   37   38
BRANCH   54   55
ATOM     65  F10 UNL A   1      30.798  43.049  45.806  1.00  0.00    +0.000 F 
ATOM     55  C40 UNL A   1      31.980  41.389  47.036  1.00  0.00    +0.000 C 
ATOM     56  C41 UNL A   1      33.117  41.067  47.789  1.00  0.00    +0.000 C 
ATOM     57  F6  UNL A   1      33.261  39.836  48.303  1.00  0.00    +0.000 F 
ATOM     58  C42 UNL A   1      34.102  42.019  48.036  1.00  0.00    +0.000 C 
ATOM     59  F7  UNL A   1      35.170  41.700  48.781  1.00  0.00    +0.000 F 
ATOM     60  C43 UNL A   1      33.981  43.300  47.515  1.00  0.00    +0.000 C 
ATOM     61  F8  UNL A   1      34.938  44.210  47.740  1.00  0.00    +0.000 F 
ATOM     62  C44 UNL A   1      32.865  43.637  46.763  1.00  0.00    +0.000 C 
ATOM     63  F9  UNL A   1      32.751  44.870  46.250  1.00  0.00    +0.000 F 
ATOM     64  C45 UNL A   1      31.867  42.694  46.534  1.00  0.00    +0.000 C 
ENDBRANCH   54   55
BRANCH   69   70
ATOM     70  C49 UNL A   1      25.492  40.252  49.360  1.00  0.00    +0.000 C 
ATOM     71  C50 UNL A   1      25.514  39.787  50.680  1.00  0.00    +0.000 C 
ATOM     72  F11 UNL A   1      26.254  38.715  50.999  1.00  0.00    +0.000 F 
ATOM     73  C51 UNL A   1      24.767  40.414  51.674  1.00  0.00    +0.000 C 
ATOM     74  F12 UNL A   1      24.791  39.940  52.927  1.00  0.00    +0.000 F 
ATOM     75  C52 UNL A   1      24.001  41.531  51.370  1.00  0.00    +0.000 C 
ATOM     76  F13 UNL A   1      23.300  42.147  52.332  1.00  0.00    +0.000 F 
ATOM     77  C53 UNL A   1      23.964  42.009  50.069  1.00  0.00    +0.000 C 
ATOM     78  F14 UNL A   1      23.240  43.097  49.775  1.00  0.00    +0.000 F 
ATOM     79  C54 UNL A   1      24.691  41.367  49.069  1.00  0.00    +0.000 C 
ATOM     80  F15 UNL A   1      24.647  41.855  47.821  1.00  0.00    +0.000 F 
ENDBRANCH   69   70
TORSDOF 18
ENDMDL
MODEL 3
REMARK VINA RESULT:      -9.9     16.224     21.390
ROOT
ATOM     33  C25 UNL A   1       2.738  11.131  37.795  1.00  0.00    +0.000 C 
ATOM     34  C26 UNL A   1       1.398  10.779  37.220  1.00  0.00    +0.000 C 
ATOM     35  N5  UNL A   1       0.964   9.624  36.780  1.00  0.00    +0.000 N 
ATOM     36  C27 UNL A   1      -0.350   9.837  36.391  1.00  0.00    +0.000 C 
ATOM     37  C28 UNL A   1      -1.221   8.952  35.848  1.00  0.00    +0.000 C 
ATOM     49  C35 UNL A   1      -0.905   7.576  35.563  1.00  0.00    +0.000 C 
ATOM     50  C36 UNL A   1      -1.698   6.614  34.962  1.00  0.00    +0.000 C 
ATOM     51  C37 UNL A   1      -0.991   5.407  34.952  1.00  0.00    +0.000 C 
ATOM     52  C38 UNL A   1       0.262   5.628  35.502  1.00  0.00    +0.000 C 
ATOM     53  N6  UNL A   1       0.301   6.963  35.872  1.00  0.00    +0.000 N 
ATOM     54  C39 UNL A   1       1.341   4.688  35.681  1.00  0.00    +0.000 C 
ATOM     66  C46 UNL A   1       2.556   4.984  36.205  1.00  0.00    +0.000 C 
ATOM     67  N7  UNL A   1       3.029   6.205  36.666  1.00  0.00    +0.000 N 
ATOM     68  C47 UNL A   1       4.256   5.986  37.070  1.00  0.00    +0.000 C 
ATOM     69  C48 UNL A   1       5.244   6.957  37.646  1.00  0.00    +0.000 C 
ATOM     81  C55 UNL A   1       4.910   8.256  37.748  1.00  0.00    +0.000 C 
ATOM     82  C56 UNL A   1       5.763   9.302  38.304  1.00  0.00    +0.000 C 
ATOM     83  C57 UNL A   1       5.059  10.440  38.383  1.00  0.00    +0.000 C 
ATOM     84  C58 UNL A   1       3.721  10.214  37.834  1.00  0.00    +0.000 C 
ATOM     85  N8  UNL A   1       3.743   8.904  37.425  1.00  0.00    +0.000 N 
ATOM     86  C59 UNL A   1       4.696   4.591  36.932  1.00  0.00    +0.000 C 
ATOM     87  C60 UNL A   1       3.631   4.028  36.378  1.00  0.00    +0.000 C 
ATOM     88  C61 UNL A   1      -0.653  11.225  36.668  1.00  0.00    +0.000 C 
ATOM     89  C62 UNL A   1       0.409  11.863  37.140  1.00  0.00    +0.000 C 
ATOM    117  H26 UNL A   1      -2.648   6.761  34.586  1.00  0.00    +0.000 H 
ATOM    118  H27 UNL A   1      -1.342   4.504  34.597  1.00  0.00    +0.000 H 
ATOM    119  H28 UNL A   1       1.072   7.411  36.292  1.00  0.00    +0.000 H 
ATOM    120  H29 UNL A   1       6.748   9.184  38.588  1.00  0.00    +0.000 H 
ATOM    121  H30 UNL A   1       5.403  11.332  38.770  1.00  0.00    +0.000 H 
ATOM    122  H31 UNL A   1       2.996   8.472  36.949  1.00  0.00    +0.000 H 
ATOM    123  H32 UNL A   1       5.597   4.163  37.197  1.00  0.00    +0.000 H 
ATOM    124  H33 UNL A   1       3.574   3.034  36.106  1.00  0.00    +0.000 H 
ATOM    125  H34 UNL A   1      -1.577  11.662  36.518  1.00  0.00    +0.000 H 
ATOM    126  H35 UNL A   1       0.514  12.859  37.387  1.00  0.00    +0.000 H 
ENDROOT
BRANCH   33   32
ATOM    127  H36 UNL A   1       3.663  13.330  36.548  1.00  0.00    +0.000 H 
ATOM     32  C24 UNL A   1       2.986  12.478  38.363  1.00  0.00    +0.000 C 
ATOM    115  H24 UNL A   1       2.570  14.241  41.190  1.00  0.00    +0.000 H 
ATOM    116  H25 UNL A   1       2.350  11.988  40.320  1.00  0.00    +0.000 H 
ATOM     90  C63 UNL A   1       3.471  13.512  37.545  1.00  0.00    +0.000 C 
ATOM     91  C64 UNL A   1       3.695  14.782  38.076  1.00  0.00    +0.000 C 
ATOM     29  C21 UNL A   1       3.406  15.036  39.419  1.00  0.00    +0.000 C 
ATOM     30  C22 UNL A   1       2.855  14.031  40.220  1.00  0.00    +0.000 C 
ATOM     31  C23 UNL A   1       2.690  12.746  39.708  1.00  0.00    +0.000 C 
ATOM    128  H37 UNL A   1       4.072  15.534  37.477  1.00  0.00    +0.000 H 
BRANCH   29    2
ATOM      1  O1  UNL A   1       2.831  17.283  39.754  1.00  0.00    +0.000 O 
ATOM      2  C1  UNL A   1       3.652  16.392  39.955  1.00  0.00    +0.000 C 
BRANCH    2    3
ATOM      3  N1  UNL A   1       4.795  16.657  40.664  1.00  0.00    +0.000 N 
ATOM     92  H1  UNL A   1       4.660  16.880  41.613  1.00  0.00    +0.000 H 
BRANCH    3    4
ATOM      4  C2  UNL A   1       6.177  16.657  40.214  1.00  0.00    +0.000 C 
ATOM     93  H2  UNL A   1       6.680  17.493  40.651  1.00  0.00    +0.000 H 
ATOM     94  H3  UNL A   1       6.172  16.717  39.146  1.00  0.00    +0.000 H 
BRANCH    4    5
ATOM      5  C3  UNL A   1       6.914  15.380  40.605  1.00  0.00    +0.000 C 
ATOM     95  H4  UNL A   1       6.314  14.546  40.304  1.00  0.00    +0.000 H 
ATOM     96  H5  UNL A   1       7.067  15.436  41.663  1.00  0.00    +0.000 H 
BRANCH    5    6
ATOM     97  H6  UNL A   1       8.224  14.501  39.190  1.00  0.00    +0.000 H 
ATOM     98  H7  UNL A   1       8.947  14.907  40.779  1.00  0.00    +0.000 H 
ATOM      6  C4  UNL A   1       8.302  15.215  39.982  1.00  0.00    +0.000 C 
BRANCH    6    7
ATOM     99  H8  UNL A   1       8.180  16.982  38.816  1.00  0.00    +0.000 H 
ATOM    100  H9  UNL A   1       9.781  16.173  38.853  1.00  0.00    +0.000 H 
ATOM      7  C5  UNL A   1       8.924  16.491  39.408  1.00  0.00    +0.000 C 
BRANCH    7    8
ATOM    101  H10 UNL A   1       9.694  16.960  41.331  1.00  0.00    +0.000 H 
ATOM    102  H11 UNL A   1       8.659  18.211  40.579  1.00  0.00    +0.000 H 
ATOM      8  C6  UNL A   1       9.443  17.498  40.440  1.00  0.00    +0.000 C 
BRANCH    8    9
ATOM      9  C7  UNL A   1      10.671  18.297  40.008  1.00  0.00    +0.000 C 
ATOM    103  H12 UNL A   1      10.350  19.240  39.619  1.00  0.00    +0.000 H 
ATOM    104  H13 UNL A   1      11.190  17.728  39.264  1.00  0.00    +0.000 H 
BRANCH    9   10
ATOM    105  H14 UNL A   1      11.255  18.265  42.000  1.00  0.00    +0.000 H 
ATOM     10  N2  UNL A   1      11.585  18.531  41.112  1.00  0.00    +0.000 N 
BRANCH   10   11
ATOM     11  C8  UNL A   1      12.845  19.072  41.085  1.00  0.00    +0.000 C 
ATOM     12  O2  UNL A   1      13.769  18.510  41.663  1.00  0.00    +0.000 O 
BRANCH   11   13
ATOM    106  H15 UNL A   1      13.756  19.361  38.606  1.00  0.00    +0.000 H 
ATOM    107  H16 UNL A   1      14.146  21.421  37.381  1.00  0.00    +0.000 H 
ATOM    108  H17 UNL A   1      13.706  23.557  38.430  1.00  0.00    +0.000 H 
ATOM     13  C9  UNL A   1      13.092  20.335  40.360  1.00  0.00    +0.000 C 
ATOM     14  C10 UNL A   1      13.572  20.274  39.051  1.00  0.00    +0.000 C 
ATOM     15  C11 UNL A   1      13.799  21.454  38.352  1.00  0.00    +0.000 C 
ATOM     16  C12 UNL A   1      13.557  22.688  38.965  1.00  0.00    +0.000 C 
ATOM     17  C13 UNL A   1      13.116  22.768  40.294  1.00  0.00    +0.000 C 
ATOM    114  H23 UNL A   1      12.571  21.603  41.966  1.00  0.00    +0.000 H 
ATOM     28  C20 UNL A   1      12.890  21.573  40.985  1.00  0.00    +0.000 C 
BRANCH   17   18
ATOM     18  N3  UNL A   1      12.819  23.987  40.945  1.00  0.00    +0.000 N 
ATOM    109  H18 UNL A   1      11.863  24.212  41.014  1.00  0.00    +0.000 H 
BRANCH   18   19
ATOM    110  H19 UNL A   1      14.076  25.916  39.682  1.00  0.00    +0.000 H 
ATOM    111  H20 UNL A   1      15.460  27.660  40.641  1.00  0.00    +0.000 H 
ATOM    112  H21 UNL A   1      14.998  25.928  44.451  1.00  0.00    +0.000 H 
ATOM    113  H22 UNL A   1      13.608  24.191  43.485  1.00  0.00    +0.000 H 
ATOM     19  C14 UNL A   1      13.709  24.921  41.507  1.00  0.00    +0.000 C 
ATOM     20  C15 UNL A   1      14.261  25.922  40.697  1.00  0.00    +0.000 C 
ATOM     21  C16 UNL A   1      15.059  26.928  41.248  1.00  0.00    +0.000 C 
ATOM     22  C17 UNL A   1      15.313  26.938  42.623  1.00  0.00    +0.000 C 
ATOM     26  C18 UNL A   1      14.793  25.932  43.440  1.00  0.00    +0.000 C 
ATOM     27  C19 UNL A   1      13.994  24.932  42.879  1.00  0.00    +0.000 C 
BRANCH   22   23
ATOM     25  O4  UNL A   1      16.923  27.777  44.274  1.00  0.00    +0.000 O 
ATOM     23  N4  UNL A   1      16.093  28.007  43.202  1.00  0.00    +0.000 N 
ATOM     24  O3  UNL A   1      16.015  29.141  42.777  1.00  0.00    +0.000 O 
ENDBRANCH   22   23
ENDBRANCH   18   19
ENDBRANCH   17   18
ENDBRANCH   11   13
ENDBRANCH   10   11
ENDBRANCH    9   10
ENDBRANCH    8    9
ENDBRANCH    7    8
ENDBRANCH    6    7
ENDBRANCH    5    6
ENDBRANCH    4    5
ENDBRANCH    3    4
ENDBRANCH    2    3
ENDBRANCH   29    2
ENDBRANCH   33   32
BRANCH   37   38
ATOM     38  C29 UNL A   1      -2.610   9.437  35.554  1.00  0.00    +0.000 C 
ATOM     39  C30 UNL A   1      -3.607   9.474  36.540  1.00  0.00    +0.000 C 
ATOM     40  F1  UNL A   1      -3.343   9.039  37.783  1.00  0.00    +0.000 F 
ATOM     41  C31 UNL A   1      -4.893   9.919  36.244  1.00  0.00    +0.000 C 
ATOM     42  F2  UNL A   1      -5.842   9.895  37.190  1.00  0.00    +0.000 F 
ATOM     43  C32 UNL A   1      -5.199  10.368  34.968  1.00  0.00    +0.000 C 
ATOM     44  F3  UNL A   1      -6.438  10.793  34.685  1.00  0.00    +0.000 F 
ATOM     45  C33 UNL A   1      -4.223  10.365  33.984  1.00  0.00    +0.000 C 
ATOM     46  F4  UNL A   1      -4.513  10.809  32.752  1.00  0.00    +0.000 F 
ATOM     47  C34 UNL A   1      -2.943   9.895  34.270  1.00  0.00    +0.000 C 
ATOM     48  F5  UNL A   1      -2.027   9.888  33.290  1.00  0.00    +0.000 F 
ENDBRANCH   37   38
BRANCH   54   55
ATOM     65  F10 UNL A   1       0.267   2.675  37.370  1.00  0.00    +0.000 F 
ATOM     55  C40 UNL A   1       1.112   3.277  35.228  1.00  0.00    +0.000 C 
ATOM     56  C41 UNL A   1       1.454   2.858  33.936  1.00  0.00    +0.000 C 
ATOM     57  F6  UNL A   1       1.925   3.740  33.041  1.00  0.00    +0.000 F 
ATOM     58  C42 UNL A   1       1.292   1.529  33.551  1.00  0.00    +0.000 C 
ATOM     59  F7  UNL A   1       1.600   1.153  32.302  1.00  0.00    +0.000 F 
ATOM     60  C43 UNL A   1       0.809   0.595  34.456  1.00  0.00    +0.000 C 
ATOM     61  F8  UNL A   1       0.668  -0.686  34.088  1.00  0.00    +0.000 F 
ATOM     62  C44 UNL A   1       0.468   0.990  35.741  1.00  0.00    +0.000 C 
ATOM     63  F9  UNL A   1       0.011   0.086  36.620  1.00  0.00    +0.000 F 
ATOM     64  C45 UNL A   1       0.607   2.321  36.122  1.00  0.00    +0.000 C 
ENDBRANCH   54   55
BRANCH   69   70
ATOM     70  C49 UNL A   1       6.586   6.522  38.108  1.00  0.00    +0.000 C 
ATOM     71  C50 UNL A   1       7.741   6.879  37.403  1.00  0.00    +0.000 C 
ATOM     72  F11 UNL A   1       7.639   7.554  36.249  1.00  0.00    +0.000 F 
ATOM     73  C51 UNL A   1       9.005   6.533  37.875  1.00  0.00    +0.000 C 
ATOM     74  F12 UNL A   1      10.095   6.871  37.174  1.00  0.00    +0.000 F 
ATOM     75  C52 UNL A   1       9.137   5.842  39.071  1.00  0.00    +0.000 C 
ATOM     76  F13 UNL A   1      10.354   5.529  39.535  1.00  0.00    +0.000 F 
ATOM     77  C53 UNL A   1       8.005   5.478  39.786  1.00  0.00    +0.000 C 
ATOM     78  F14 UNL A   1       8.129   4.827  40.951  1.00  0.00    +0.000 F 
ATOM     79  C54 UNL A   1       6.740   5.802  39.302  1.00  0.00    +0.000 C 
ATOM     80  F15 UNL A   1       5.663   5.448  40.017  1.00  0.00    +0.000 F 
ENDBRANCH   69   70
TORSDOF 18
ENDMDL
MODEL 4
REMARK VINA RESULT:      -9.8     43.662     50.315
ROOT
ATOM     33  C25 UNL A   1      14.031  53.737   5.419  1.00  0.00    +0.000 C 
ATOM     34  C26 UNL A   1      14.978  54.231   4.366  1.00  0.00    +0.000 C 
ATOM     35  N5  UNL A   1      15.497  53.584   3.353  1.00  0.00    +0.000 N 
ATOM     36  C27 UNL A   1      16.275  54.511   2.672  1.00  0.00    +0.000 C 
ATOM     37  C28 UNL A   1      17.033  54.321   1.565  1.00  0.00    +0.000 C 
ATOM     49  C35 UNL A   1      17.171  53.060   0.884  1.00  0.00    +0.000 C 
ATOM     50  C36 UNL A   1      17.959  52.750  -0.211  1.00  0.00    +0.000 C 
ATOM     51  C37 UNL A   1      17.720  51.417  -0.560  1.00  0.00    +0.000 C 
ATOM     52  C38 UNL A   1      16.821  50.880   0.347  1.00  0.00    +0.000 C 
ATOM     53  N6  UNL A   1      16.492  51.898   1.228  1.00  0.00    +0.000 N 
ATOM     54  C39 UNL A   1      16.296  49.538   0.402  1.00  0.00    +0.000 C 
ATOM     66  C46 UNL A   1      15.435  49.075   1.341  1.00  0.00    +0.000 C 
ATOM     67  N7  UNL A   1      14.885  49.747   2.423  1.00  0.00    +0.000 N 
ATOM     68  C47 UNL A   1      14.120  48.878   3.036  1.00  0.00    +0.000 C 
ATOM     69  C48 UNL A   1      13.296  49.059   4.277  1.00  0.00    +0.000 C 
ATOM     81  C55 UNL A   1      13.336  50.235   4.929  1.00  0.00    +0.000 C 
ATOM     82  C56 UNL A   1      12.574  50.555   6.133  1.00  0.00    +0.000 C 
ATOM     83  C57 UNL A   1      12.744  51.853   6.422  1.00  0.00    +0.000 C 
ATOM     84  C58 UNL A   1      13.669  52.442   5.453  1.00  0.00    +0.000 C 
ATOM     85  N8  UNL A   1      14.016  51.392   4.639  1.00  0.00    +0.000 N 
ATOM     86  C59 UNL A   1      14.079  47.555   2.398  1.00  0.00    +0.000 C 
ATOM     87  C60 UNL A   1      14.916  47.722   1.383  1.00  0.00    +0.000 C 
ATOM     88  C61 UNL A   1      16.140  55.771   3.372  1.00  0.00    +0.000 C 
ATOM     89  C62 UNL A   1      15.385  55.640   4.454  1.00  0.00    +0.000 C 
ATOM    117  H26 UNL A   1      18.611  53.393  -0.688  1.00  0.00    +0.000 H 
ATOM    118  H27 UNL A   1      18.142  50.917  -1.358  1.00  0.00    +0.000 H 
ATOM    119  H28 UNL A   1      15.870  51.811   1.986  1.00  0.00    +0.000 H 
ATOM    120  H29 UNL A   1      12.000  49.889   6.673  1.00  0.00    +0.000 H 
ATOM    121  H30 UNL A   1      12.295  52.357   7.202  1.00  0.00    +0.000 H 
ATOM    122  H31 UNL A   1      14.686  51.462   3.920  1.00  0.00    +0.000 H 
ATOM    123  H32 UNL A   1      13.541  46.717   2.668  1.00  0.00    +0.000 H 
ATOM    124  H33 UNL A   1      15.166  46.982   0.708  1.00  0.00    +0.000 H 
ATOM    125  H34 UNL A   1      16.577  56.656   3.069  1.00  0.00    +0.000 H 
ATOM    126  H35 UNL A   1      15.144  56.344   5.169  1.00  0.00    +0.000 H 
ENDROOT
BRANCH   33   32
ATOM    127  H36 UNL A   1      11.751  55.159   5.250  1.00  0.00    +0.000 H 
ATOM     32  C24 UNL A   1      13.451  54.673   6.413  1.00  0.00    +0.000 C 
ATOM    115  H24 UNL A   1      13.933  55.789   9.543  1.00  0.00    +0.000 H 
ATOM    116  H25 UNL A   1      14.986  54.414   7.846  1.00  0.00    +0.000 H 
ATOM     90  C63 UNL A   1      12.237  55.326   6.145  1.00  0.00    +0.000 C 
ATOM     91  C64 UNL A   1      11.687  56.199   7.084  1.00  0.00    +0.000 C 
ATOM     29  C21 UNL A   1      12.330  56.401   8.308  1.00  0.00    +0.000 C 
ATOM     30  C22 UNL A   1      13.501  55.698   8.609  1.00  0.00    +0.000 C 
ATOM     31  C23 UNL A   1      14.084  54.875   7.649  1.00  0.00    +0.000 C 
ATOM    128  H37 UNL A   1      10.806  56.695   6.875  1.00  0.00    +0.000 H 
BRANCH   29    2
ATOM      1  O1  UNL A   1      11.792  58.542   9.094  1.00  0.00    +0.000 O 
ATOM      2  C1  UNL A   1      11.724  57.331   9.284  1.00  0.00    +0.000 C 
BRANCH    2    3
ATOM      3  N1  UNL A   1      11.098  56.844  10.404  1.00  0.00    +0.000 N 
ATOM     92  H1  UNL A   1      11.261  57.352  11.231  1.00  0.00    +0.000 H 
BRANCH    3    4
ATOM      4  C2  UNL A   1      10.230  55.688  10.544  1.00  0.00    +0.000 C 
ATOM     93  H2  UNL A   1       9.773  55.485   9.598  1.00  0.00    +0.000 H 
ATOM     94  H3  UNL A   1       9.500  55.917  11.291  1.00  0.00    +0.000 H 
BRANCH    4    5
ATOM      5  C3  UNL A   1      10.988  54.445  10.999  1.00  0.00    +0.000 C 
ATOM     95  H4  UNL A   1      11.343  53.935  10.127  1.00  0.00    +0.000 H 
ATOM     96  H5  UNL A   1      10.296  53.869  11.577  1.00  0.00    +0.000 H 
BRANCH    5    6
ATOM     97  H6  UNL A   1      11.836  54.709  12.924  1.00  0.00    +0.000 H 
ATOM     98  H7  UNL A   1      12.590  55.653  11.599  1.00  0.00    +0.000 H 
ATOM      6  C4  UNL A   1      12.185  54.713  11.912  1.00  0.00    +0.000 C 
BRANCH    6    7
ATOM     99  H8  UNL A   1      14.103  54.148  11.204  1.00  0.00    +0.000 H 
ATOM    100  H9  UNL A   1      12.909  52.820  11.385  1.00  0.00    +0.000 H 
ATOM      7  C5  UNL A   1      13.335  53.707  11.806  1.00  0.00    +0.000 C 
BRANCH    7    8
ATOM    101  H10 UNL A   1      13.249  52.687  13.666  1.00  0.00    +0.000 H 
ATOM    102  H11 UNL A   1      14.234  54.182  13.640  1.00  0.00    +0.000 H 
ATOM      8  C6  UNL A   1      13.966  53.278  13.135  1.00  0.00    +0.000 C 
BRANCH    8    9
ATOM      9  C7  UNL A   1      15.252  52.465  13.011  1.00  0.00    +0.000 C 
ATOM    103  H12 UNL A   1      15.237  51.682  13.740  1.00  0.00    +0.000 H 
ATOM    104  H13 UNL A   1      16.078  53.127  13.172  1.00  0.00    +0.000 H 
BRANCH    9   10
ATOM    105  H14 UNL A   1      14.747  52.172  11.019  1.00  0.00    +0.000 H 
ATOM     10  N2  UNL A   1      15.401  51.875  11.692  1.00  0.00    +0.000 N 
BRANCH   10   11
ATOM     11  C8  UNL A   1      16.327  50.963  11.257  1.00  0.00    +0.000 C 
ATOM     12  O2  UNL A   1      17.521  51.152  11.461  1.00  0.00    +0.000 O 
BRANCH   11   13
ATOM    106  H15 UNL A   1      17.636  49.646   9.357  1.00  0.00    +0.000 H 
ATOM    107  H16 UNL A   1      16.951  47.634   8.181  1.00  0.00    +0.000 H 
ATOM    108  H17 UNL A   1      14.825  46.597   8.689  1.00  0.00    +0.000 H 
ATOM     13  C9  UNL A   1      15.888  49.749  10.539  1.00  0.00    +0.000 C 
ATOM     14  C10 UNL A   1      16.729  49.202   9.570  1.00  0.00    +0.000 C 
ATOM     15  C11 UNL A   1      16.334  48.052   8.894  1.00  0.00    +0.000 C 
ATOM     16  C12 UNL A   1      15.098  47.462   9.180  1.00  0.00    +0.000 C 
ATOM     17  C13 UNL A   1      14.222  48.024  10.120  1.00  0.00    +0.000 C 
ATOM    114  H23 UNL A   1      14.005  49.616  11.487  1.00  0.00    +0.000 H 
ATOM     28  C20 UNL A   1      14.633  49.179  10.795  1.00  0.00    +0.000 C 
BRANCH   17   18
ATOM     18  N3  UNL A   1      12.982  47.445  10.473  1.00  0.00    +0.000 N 
ATOM    109  H18 UNL A   1      12.951  47.009  11.356  1.00  0.00    +0.000 H 
BRANCH   18   19
ATOM    110  H19 UNL A   1      11.231  45.489  10.414  1.00  0.00    +0.000 H 
ATOM    111  H20 UNL A   1       9.074  45.464   9.307  1.00  0.00    +0.000 H 
ATOM    112  H21 UNL A   1       9.851  49.283   7.712  1.00  0.00    +0.000 H 
ATOM    113  H22 UNL A   1      12.004  49.304   8.830  1.00  0.00    +0.000 H 
ATOM     19  C14 UNL A   1      11.787  47.408   9.731  1.00  0.00    +0.000 C 
ATOM     20  C15 UNL A   1      10.936  46.302   9.850  1.00  0.00    +0.000 C 
ATOM     21  C16 UNL A   1       9.693  46.285   9.212  1.00  0.00    +0.000 C 
ATOM     22  C17 UNL A   1       9.291  47.383   8.446  1.00  0.00    +0.000 C 
ATOM     26  C18 UNL A   1      10.139  48.482   8.295  1.00  0.00    +0.000 C 
ATOM     27  C19 UNL A   1      11.379  48.489   8.939  1.00  0.00    +0.000 C 
BRANCH   22   23
ATOM     25  O4  UNL A   1       7.003  48.252   8.261  1.00  0.00    +0.000 O 
ATOM     23  N4  UNL A   1       7.984  47.391   7.830  1.00  0.00    +0.000 N 
ATOM     24  O3  UNL A   1       7.709  46.619   6.935  1.00  0.00    +0.000 O 
ENDBRANCH   22   23
ENDBRANCH   18   19
ENDBRANCH   17   18
ENDBRANCH   11   13
ENDBRANCH   10   11
ENDBRANCH    9   10
ENDBRANCH    8    9
ENDBRANCH    7    8
ENDBRANCH    6    7
ENDBRANCH    5    6
ENDBRANCH    4    5
ENDBRANCH    3    4
ENDBRANCH    2    3
ENDBRANCH   29    2
ENDBRANCH   33   32
BRANCH   37   38
ATOM     38  C29 UNL A   1      17.750  55.514   1.003  1.00  0.00    +0.000 C 
ATOM     39  C30 UNL A   1      17.199  56.294  -0.024  1.00  0.00    +0.000 C 
ATOM     40  F1  UNL A   1      16.011  55.966  -0.556  1.00  0.00    +0.000 F 
ATOM     41  C31 UNL A   1      17.885  57.392  -0.538  1.00  0.00    +0.000 C 
ATOM     42  F2  UNL A   1      17.361  58.090  -1.555  1.00  0.00    +0.000 F 
ATOM     43  C32 UNL A   1      19.118  57.751  -0.014  1.00  0.00    +0.000 C 
ATOM     44  F3  UNL A   1      19.777  58.806  -0.512  1.00  0.00    +0.000 F 
ATOM     45  C33 UNL A   1      19.670  57.010   1.018  1.00  0.00    +0.000 C 
ATOM     46  F4  UNL A   1      20.856  57.363   1.535  1.00  0.00    +0.000 F 
ATOM     47  C34 UNL A   1      18.999  55.896   1.517  1.00  0.00    +0.000 C 
ATOM     48  F5  UNL A   1      19.569  55.190   2.504  1.00  0.00    +0.000 F 
ENDBRANCH   37   38
BRANCH   54   55
ATOM     65  F10 UNL A   1      14.761  48.894  -1.897  1.00  0.00    +0.000 F 
ATOM     55  C40 UNL A   1      16.759  48.571  -0.645  1.00  0.00    +0.000 C 
ATOM     56  C41 UNL A   1      17.979  47.892  -0.528  1.00  0.00    +0.000 C 
ATOM     57  F6  UNL A   1      18.804  48.157   0.496  1.00  0.00    +0.000 F 
ATOM     58  C42 UNL A   1      18.367  46.951  -1.479  1.00  0.00    +0.000 C 
ATOM     59  F7  UNL A   1      19.549  46.331  -1.363  1.00  0.00    +0.000 F 
ATOM     60  C43 UNL A   1      17.532  46.656  -2.547  1.00  0.00    +0.000 C 
ATOM     61  F8  UNL A   1      17.899  45.738  -3.453  1.00  0.00    +0.000 F 
ATOM     62  C44 UNL A   1      16.318  47.314  -2.679  1.00  0.00    +0.000 C 
ATOM     63  F9  UNL A   1      15.506  47.022  -3.705  1.00  0.00    +0.000 F 
ATOM     64  C45 UNL A   1      15.939  48.271  -1.743  1.00  0.00    +0.000 C 
ENDBRANCH   54   55
BRANCH   69   70
ATOM     70  C49 UNL A   1      12.435  47.973   4.807  1.00  0.00    +0.000 C 
ATOM     71  C50 UNL A   1      11.163  47.736   4.274  1.00  0.00    +0.000 C 
ATOM     72  F11 UNL A   1      10.674  48.547   3.325  1.00  0.00    +0.000 F 
ATOM     73  C51 UNL A   1      10.385  46.671   4.722  1.00  0.00    +0.000 C 
ATOM     74  F12 UNL A   1       9.163  46.475   4.208  1.00  0.00    +0.000 F 
ATOM     75  C52 UNL A   1      10.873  45.813   5.696  1.00  0.00    +0.000 C 
ATOM     76  F13 UNL A   1      10.132  44.776   6.111  1.00  0.00    +0.000 F 
ATOM     77  C53 UNL A   1      12.131  46.029   6.240  1.00  0.00    +0.000 C 
ATOM     78  F14 UNL A   1      12.613  45.192   7.168  1.00  0.00    +0.000 F 
ATOM     79  C54 UNL A   1      12.899  47.108   5.810  1.00  0.00    +0.000 C 
ATOM     80  F15 UNL A   1      14.116  47.289   6.343  1.00  0.00    +0.000 F 
ENDBRANCH   69   70
TORSDOF 18
ENDMDL
MODEL 5
REMARK VINA RESULT:      -9.7     35.683     41.878
ROOT
ATOM     33  C25 UNL A   1      25.759  36.662  45.627  1.00  0.00    +0.000 C 
ATOM     34  C26 UNL A   1      25.737  37.830  46.568  1.00  0.00    +0.000 C 
ATOM     35  N5  UNL A   1      26.713  38.634  46.910  1.00  0.00    +0.000 N 
ATOM     36  C27 UNL A   1      26.151  39.560  47.778  1.00  0.00    +0.000 C 
ATOM     37  C28 UNL A   1      26.760  40.586  48.421  1.00  0.00    +0.000 C 
ATOM     49  C35 UNL A   1      28.162  40.893  48.312  1.00  0.00    +0.000 C 
ATOM     50  C36 UNL A   1      28.886  41.875  48.966  1.00  0.00    +0.000 C 
ATOM     51  C37 UNL A   1      30.203  41.835  48.496  1.00  0.00    +0.000 C 
ATOM     52  C38 UNL A   1      30.313  40.797  47.585  1.00  0.00    +0.000 C 
ATOM     53  N6  UNL A   1      29.054  40.227  47.482  1.00  0.00    +0.000 N 
ATOM     54  C39 UNL A   1      31.480  40.361  46.859  1.00  0.00    +0.000 C 
ATOM     66  C46 UNL A   1      31.519  39.314  46.000  1.00  0.00    +0.000 C 
ATOM     67  N7  UNL A   1      30.495  38.449  45.636  1.00  0.00    +0.000 N 
ATOM     68  C47 UNL A   1      31.022  37.604  44.786  1.00  0.00    +0.000 C 
ATOM     69  C48 UNL A   1      30.375  36.446  44.085  1.00  0.00    +0.000 C 
ATOM     81  C55 UNL A   1      29.091  36.147  44.354  1.00  0.00    +0.000 C 
ATOM     82  C56 UNL A   1      28.333  35.064  43.735  1.00  0.00    +0.000 C 
ATOM     83  C57 UNL A   1      27.054  35.150  44.127  1.00  0.00    +0.000 C 
ATOM     84  C58 UNL A   1      26.916  36.263  45.067  1.00  0.00    +0.000 C 
ATOM     85  N8  UNL A   1      28.189  36.760  45.189  1.00  0.00    +0.000 N 
ATOM     86  C59 UNL A   1      32.441  37.849  44.493  1.00  0.00    +0.000 C 
ATOM     87  C60 UNL A   1      32.701  38.887  45.277  1.00  0.00    +0.000 C 
ATOM     88  C61 UNL A   1      24.745  39.235  47.891  1.00  0.00    +0.000 C 
ATOM     89  C62 UNL A   1      24.448  38.145  47.198  1.00  0.00    +0.000 C 
ATOM    117  H26 UNL A   1      28.517  42.524  49.679  1.00  0.00    +0.000 H 
ATOM    118  H27 UNL A   1      30.964  42.472  48.779  1.00  0.00    +0.000 H 
ATOM    119  H28 UNL A   1      28.825  39.462  46.905  1.00  0.00    +0.000 H 
ATOM    120  H29 UNL A   1      28.719  34.349  43.100  1.00  0.00    +0.000 H 
ATOM    121  H30 UNL A   1      26.289  34.531  43.816  1.00  0.00    +0.000 H 
ATOM    122  H31 UNL A   1      28.432  37.484  45.812  1.00  0.00    +0.000 H 
ATOM    123  H32 UNL A   1      33.070  37.346  43.848  1.00  0.00    +0.000 H 
ATOM    124  H33 UNL A   1      33.626  39.336  45.361  1.00  0.00    +0.000 H 
ATOM    125  H34 UNL A   1      24.063  39.780  48.441  1.00  0.00    +0.000 H 
ATOM    126  H35 UNL A   1      23.547  37.648  47.120  1.00  0.00    +0.000 H 
ENDROOT
BRANCH   33   32
ATOM    127  H36 UNL A   1      24.715  34.441  46.733  1.00  0.00    +0.000 H 
ATOM     32  C24 UNL A   1      24.505  35.956  45.270  1.00  0.00    +0.000 C 
ATOM    115  H24 UNL A   1      21.810  36.253  43.289  1.00  0.00    +0.000 H 
ATOM    116  H25 UNL A   1      23.953  37.299  43.731  1.00  0.00    +0.000 H 
ATOM     90  C63 UNL A   1      24.119  34.802  45.972  1.00  0.00    +0.000 C 
ATOM     91  C64 UNL A   1      22.934  34.143  45.643  1.00  0.00    +0.000 C 
ATOM     29  C21 UNL A   1      22.112  34.650  44.633  1.00  0.00    +0.000 C 
ATOM     30  C22 UNL A   1      22.455  35.838  43.981  1.00  0.00    +0.000 C 
ATOM     31  C23 UNL A   1      23.668  36.462  44.264  1.00  0.00    +0.000 C 
ATOM    128  H37 UNL A   1      22.664  33.282  46.146  1.00  0.00    +0.000 H 
BRANCH   29    2
ATOM      1  O1  UNL A   1      19.781  34.499  44.446  1.00  0.00    +0.000 O 
ATOM      2  C1  UNL A   1      20.862  33.932  44.307  1.00  0.00    +0.000 C 
BRANCH    2    3
ATOM      3  N1  UNL A   1      20.906  32.636  43.862  1.00  0.00    +0.000 N 
ATOM     92  H1  UNL A   1      21.059  32.527  42.896  1.00  0.00    +0.000 H 
BRANCH    3    4
ATOM      4  C2  UNL A   1      20.759  31.400  44.613  1.00  0.00    +0.000 C 
ATOM     93  H2  UNL A   1      21.584  31.309  45.288  1.00  0.00    +0.000 H 
ATOM     94  H3  UNL A   1      20.735  30.594  43.911  1.00  0.00    +0.000 H 
BRANCH    4    5
ATOM      5  C3  UNL A   1      19.462  31.359  45.414  1.00  0.00    +0.000 C 
ATOM     95  H4  UNL A   1      19.463  32.190  46.089  1.00  0.00    +0.000 H 
ATOM     96  H5  UNL A   1      19.447  30.409  45.908  1.00  0.00    +0.000 H 
BRANCH    5    6
ATOM     97  H6  UNL A   1      18.142  32.388  44.114  1.00  0.00    +0.000 H 
ATOM     98  H7  UNL A   1      17.376  31.245  45.263  1.00  0.00    +0.000 H 
ATOM      6  C4  UNL A   1      18.181  31.426  44.581  1.00  0.00    +0.000 C 
BRANCH    6    7
ATOM     99  H8  UNL A   1      18.982  29.844  43.418  1.00  0.00    +0.000 H 
ATOM    100  H9  UNL A   1      17.781  30.894  42.596  1.00  0.00    +0.000 H 
ATOM      7  C5  UNL A   1      18.049  30.364  43.486  1.00  0.00    +0.000 C 
BRANCH    7    8
ATOM    101  H10 UNL A   1      16.143  29.547  43.028  1.00  0.00    +0.000 H 
ATOM    102  H11 UNL A   1      16.669  29.394  44.732  1.00  0.00    +0.000 H 
ATOM      8  C6  UNL A   1      16.945  29.324  43.702  1.00  0.00    +0.000 C 
BRANCH    8    9
ATOM      9  C7  UNL A   1      17.365  27.873  43.473  1.00  0.00    +0.000 C 
ATOM    103  H12 UNL A   1      17.672  27.452  44.408  1.00  0.00    +0.000 H 
ATOM    104  H13 UNL A   1      18.168  27.870  42.765  1.00  0.00    +0.000 H 
BRANCH    9   10
ATOM    105  H14 UNL A   1      16.289  26.959  41.951  1.00  0.00    +0.000 H 
ATOM     10  N2  UNL A   1      16.284  27.071  42.929  1.00  0.00    +0.000 N 
BRANCH   10   11
ATOM     11  C8  UNL A   1      15.258  26.448  43.591  1.00  0.00    +0.000 C 
ATOM     12  O2  UNL A   1      15.075  26.659  44.785  1.00  0.00    +0.000 O 
BRANCH   11   13
ATOM    106  H15 UNL A   1      12.636  26.147  43.901  1.00  0.00    +0.000 H 
ATOM    107  H16 UNL A   1      11.146  24.648  42.706  1.00  0.00    +0.000 H 
ATOM    108  H17 UNL A   1      12.022  23.172  41.000  1.00  0.00    +0.000 H 
ATOM     13  C9  UNL A   1      14.368  25.518  42.866  1.00  0.00    +0.000 C 
ATOM     14  C10 UNL A   1      13.007  25.515  43.174  1.00  0.00    +0.000 C 
ATOM     15  C11 UNL A   1      12.155  24.652  42.492  1.00  0.00    +0.000 C 
ATOM     16  C12 UNL A   1      12.666  23.791  41.516  1.00  0.00    +0.000 C 
ATOM     17  C13 UNL A   1      14.037  23.750  41.225  1.00  0.00    +0.000 C 
ATOM    114  H23 UNL A   1      15.897  24.611  41.727  1.00  0.00    +0.000 H 
ATOM     28  C20 UNL A   1      14.883  24.625  41.917  1.00  0.00    +0.000 C 
BRANCH   17   18
ATOM     18  N3  UNL A   1      14.597  22.928  40.222  1.00  0.00    +0.000 N 
ATOM    109  H18 UNL A   1      14.740  21.986  40.472  1.00  0.00    +0.000 H 
BRANCH   18   19
ATOM    110  H19 UNL A   1      16.388  21.716  38.732  1.00  0.00    +0.000 H 
ATOM    111  H20 UNL A   1      16.934  22.162  36.412  1.00  0.00    +0.000 H 
ATOM    112  H21 UNL A   1      14.237  25.396  36.402  1.00  0.00    +0.000 H 
ATOM    113  H22 UNL A   1      13.691  24.938  38.720  1.00  0.00    +0.000 H 
ATOM     19  C14 UNL A   1      14.978  23.277  38.912  1.00  0.00    +0.000 C 
ATOM     20  C15 UNL A   1      15.921  22.492  38.237  1.00  0.00    +0.000 C 
ATOM     21  C16 UNL A   1      16.237  22.747  36.900  1.00  0.00    +0.000 C 
ATOM     22  C17 UNL A   1      15.608  23.798  36.226  1.00  0.00    +0.000 C 
ATOM     26  C18 UNL A   1      14.686  24.608  36.893  1.00  0.00    +0.000 C 
ATOM     27  C19 UNL A   1      14.375  24.341  38.229  1.00  0.00    +0.000 C 
BRANCH   22   23
ATOM     25  O4  UNL A   1      17.185  24.186  34.386  1.00  0.00    +0.000 O 
ATOM     23  N4  UNL A   1      15.893  24.031  34.829  1.00  0.00    +0.000 N 
ATOM     24  O3  UNL A   1      14.998  24.123  34.015  1.00  0.00    +0.000 O 
ENDBRANCH   22   23
ENDBRANCH   18   19
ENDBRANCH   17   18
ENDBRANCH   11   13
ENDBRANCH   10   11
ENDBRANCH    9   10
ENDBRANCH    8    9
ENDBRANCH    7    8
ENDBRANCH    6    7
ENDBRANCH    5    6
ENDBRANCH    4    5
ENDBRANCH    3    4
ENDBRANCH    2    3
ENDBRANCH   29    2
ENDBRANCH   33   32
BRANCH   37   38
ATOM     38  C29 UNL A   1      25.903  41.471  49.279  1.00  0.00    +0.000 C 
ATOM     39  C30 UNL A   1      25.270  42.612  48.766  1.00  0.00    +0.000 C 
ATOM     40  F1  UNL A   1      25.444  42.961  47.481  1.00  0.00    +0.000 F 
ATOM     41  C31 UNL A   1      24.487  43.426  49.582  1.00  0.00    +0.000 C 
ATOM     42  F2  UNL A   1      23.935  44.541  49.081  1.00  0.00    +0.000 F 
ATOM     43  C32 UNL A   1      24.295  43.098  50.915  1.00  0.00    +0.000 C 
ATOM     44  F3  UNL A   1      23.543  43.884  51.698  1.00  0.00    +0.000 F 
ATOM     45  C33 UNL A   1      24.890  41.961  51.438  1.00  0.00    +0.000 C 
ATOM     46  F4  UNL A   1      24.695  41.634  52.724  1.00  0.00    +0.000 F 
ATOM     47  C34 UNL A   1      25.695  41.159  50.631  1.00  0.00    +0.000 C 
ATOM     48  F5  UNL A   1      26.271  40.075  51.172  1.00  0.00    +0.000 F 
ENDBRANCH   37   38
BRANCH   54   55
ATOM     65  F10 UNL A   1      32.127  42.778  45.518  1.00  0.00    +0.000 F 
ATOM     55  C40 UNL A   1      32.759  41.108  47.093  1.00  0.00    +0.000 C 
ATOM     56  C41 UNL A   1      33.738  40.628  47.972  1.00  0.00    +0.000 C 
ATOM     57  F6  UNL A   1      33.514  39.519  48.694  1.00  0.00    +0.000 F 
ATOM     58  C42 UNL A   1      34.946  41.302  48.132  1.00  0.00    +0.000 C 
ATOM     59  F7  UNL A   1      35.859  40.842  48.998  1.00  0.00    +0.000 F 
ATOM     60  C43 UNL A   1      35.205  42.451  47.398  1.00  0.00    +0.000 C 
ATOM     61  F8  UNL A   1      36.375  43.089  47.540  1.00  0.00    +0.000 F 
ATOM     62  C44 UNL A   1      34.251  42.940  46.518  1.00  0.00    +0.000 C 
ATOM     63  F9  UNL A   1      34.504  44.043  45.800  1.00  0.00    +0.000 F 
ATOM     64  C45 UNL A   1      33.033  42.281  46.374  1.00  0.00    +0.000 C 
ENDBRANCH   54   55
BRANCH   69   70
ATOM     70  C49 UNL A   1      31.114  35.618  43.100  1.00  0.00    +0.000 C 
ATOM     71  C50 UNL A   1      31.266  36.039  41.774  1.00  0.00    +0.000 C 
ATOM     72  F11 UNL A   1      30.672  37.167  41.359  1.00  0.00    +0.000 F 
ATOM     73  C51 UNL A   1      32.021  35.298  40.868  1.00  0.00    +0.000 C 
ATOM     74  F12 UNL A   1      32.139  35.713  39.600  1.00  0.00    +0.000 F 
ATOM     75  C52 UNL A   1      32.654  34.133  41.278  1.00  0.00    +0.000 C 
ATOM     76  F13 UNL A   1      33.397  33.432  40.411  1.00  0.00    +0.000 F 
ATOM     77  C53 UNL A   1      32.516  33.696  42.587  1.00  0.00    +0.000 C 
ATOM     78  F14 UNL A   1      33.140  32.581  42.991  1.00  0.00    +0.000 F 
ATOM     79  C54 UNL A   1      31.741  34.424  43.487  1.00  0.00    +0.000 C 
ATOM     80  F15 UNL A   1      31.632  33.985  44.749  1.00  0.00    +0.000 F 
ENDBRANCH   69   70
TORSDOF 18
ENDMDL
MODEL 6
REMARK VINA RESULT:      -9.7     21.508     27.213
ROOT
ATOM     33  C25 UNL A   1      29.241 -13.757  30.746  1.00  0.00    +0.000 C 
ATOM     34  C26 UNL A   1      29.013 -13.916  32.220  1.00  0.00    +0.000 C 
ATOM     35  N5  UNL A   1      28.010 -13.499  32.951  1.00  0.00    +0.000 N 
ATOM     36  C27 UNL A   1      28.275 -13.937  34.241  1.00  0.00    +0.000 C 
ATOM     37  C28 UNL A   1      27.542 -13.738  35.365  1.00  0.00    +0.000 C 
ATOM     49  C35 UNL A   1      26.311 -12.993  35.407  1.00  0.00    +0.000 C 
ATOM     50  C36 UNL A   1      25.524 -12.685  36.504  1.00  0.00    +0.000 C 
ATOM     51  C37 UNL A   1      24.394 -11.997  36.052  1.00  0.00    +0.000 C 
ATOM     52  C38 UNL A   1      24.499 -11.830  34.681  1.00  0.00    +0.000 C 
ATOM     53  N6  UNL A   1      25.681 -12.446  34.298  1.00  0.00    +0.000 N 
ATOM     54  C39 UNL A   1      23.587 -11.164  33.785  1.00  0.00    +0.000 C 
ATOM     66  C46 UNL A   1      23.771 -11.016  32.450  1.00  0.00    +0.000 C 
ATOM     67  N7  UNL A   1      24.833 -11.445  31.667  1.00  0.00    +0.000 N 
ATOM     68  C47 UNL A   1      24.556 -11.063  30.445  1.00  0.00    +0.000 C 
ATOM     69  C48 UNL A   1      25.364 -11.249  29.195  1.00  0.00    +0.000 C 
ATOM     81  C55 UNL A   1      26.572 -11.837  29.271  1.00  0.00    +0.000 C 
ATOM     82  C56 UNL A   1      27.453 -12.097  28.137  1.00  0.00    +0.000 C 
ATOM     83  C57 UNL A   1      28.499 -12.823  28.558  1.00  0.00    +0.000 C 
ATOM     84  C58 UNL A   1      28.385 -13.034  30.001  1.00  0.00    +0.000 C 
ATOM     85  N8  UNL A   1      27.241 -12.361  30.350  1.00  0.00    +0.000 N 
ATOM     86  C59 UNL A   1      23.270 -10.366  30.307  1.00  0.00    +0.000 C 
ATOM     87  C60 UNL A   1      22.843 -10.342  31.563  1.00  0.00    +0.000 C 
ATOM     88  C61 UNL A   1      29.520 -14.674  34.190  1.00  0.00    +0.000 C 
ATOM     89  C62 UNL A   1      30.041 -14.651  32.971  1.00  0.00    +0.000 C 
ATOM    117  H26 UNL A   1      25.736 -12.924  37.485  1.00  0.00    +0.000 H 
ATOM    118  H27 UNL A   1      23.613 -11.668  36.641  1.00  0.00    +0.000 H 
ATOM    119  H28 UNL A   1      26.023 -12.488  33.375  1.00  0.00    +0.000 H 
ATOM    120  H29 UNL A   1      27.298 -11.773  27.170  1.00  0.00    +0.000 H 
ATOM    121  H30 UNL A   1      29.262 -13.178  27.960  1.00  0.00    +0.000 H 
ATOM    122  H31 UNL A   1      26.931 -12.263  31.280  1.00  0.00    +0.000 H 
ATOM    123  H32 UNL A   1      22.818  -9.992  29.458  1.00  0.00    +0.000 H 
ATOM    124  H33 UNL A   1      21.962  -9.901  31.870  1.00  0.00    +0.000 H 
ATOM    125  H34 UNL A   1      29.948 -15.154  34.998  1.00  0.00    +0.000 H 
ATOM    126  H35 UNL A   1      30.933 -15.046  32.636  1.00  0.00    +0.000 H 
ENDROOT
BRANCH   33   32
ATOM    127  H36 UNL A   1      31.673 -12.747  30.189  1.00  0.00    +0.000 H 
ATOM     32  C24 UNL A   1      30.387 -14.424  30.083  1.00  0.00    +0.000 C 
ATOM    115  H24 UNL A   1      31.352 -17.424  28.923  1.00  0.00    +0.000 H 
ATOM    116  H25 UNL A   1      29.411 -16.283  29.825  1.00  0.00    +0.000 H 
ATOM     90  C63 UNL A   1      31.590 -13.728  29.881  1.00  0.00    +0.000 C 
ATOM     91  C64 UNL A   1      32.672 -14.358  29.266  1.00  0.00    +0.000 C 
ATOM     29  C21 UNL A   1      32.569 -15.696  28.877  1.00  0.00    +0.000 C 
ATOM     30  C22 UNL A   1      31.399 -16.415  29.141  1.00  0.00    +0.000 C 
ATOM     31  C23 UNL A   1      30.297 -15.770  29.697  1.00  0.00    +0.000 C 
ATOM    128  H37 UNL A   1      33.548 -13.837  29.099  1.00  0.00    +0.000 H 
BRANCH   29    2
ATOM      1  O1  UNL A   1      34.420 -17.134  28.864  1.00  0.00    +0.000 O 
ATOM      2  C1  UNL A   1      33.732 -16.340  28.229  1.00  0.00    +0.000 C 
BRANCH    2    3
ATOM      3  N1  UNL A   1      34.049 -16.043  26.928  1.00  0.00    +0.000 N 
ATOM     92  H1  UNL A   1      34.845 -15.477  26.808  1.00  0.00    +0.000 H 
BRANCH    3    4
ATOM      4  C2  UNL A   1      33.378 -16.443  25.703  1.00  0.00    +0.000 C 
ATOM     93  H2  UNL A   1      32.849 -17.355  25.884  1.00  0.00    +0.000 H 
ATOM     94  H3  UNL A   1      34.125 -16.566  24.948  1.00  0.00    +0.000 H 
BRANCH    4    5
ATOM      5  C3  UNL A   1      32.389 -15.391  25.212  1.00  0.00    +0.000 C 
ATOM     95  H4  UNL A   1      32.434 -15.369  24.142  1.00  0.00    +0.000 H 
ATOM     96  H5  UNL A   1      32.683 -14.469  25.670  1.00  0.00    +0.000 H 
BRANCH    5    6
ATOM     97  H6  UNL A   1      30.934 -16.112  26.574  1.00  0.00    +0.000 H 
ATOM     98  H7  UNL A   1      30.500 -16.211  24.837  1.00  0.00    +0.000 H 
ATOM      6  C4  UNL A   1      30.934 -15.626  25.621  1.00  0.00    +0.000 C 
BRANCH    6    7
ATOM     99  H8  UNL A   1      30.545 -13.702  26.423  1.00  0.00    +0.000 H 
ATOM    100  H9  UNL A   1      29.104 -14.704  26.050  1.00  0.00    +0.000 H 
ATOM      7  C5  UNL A   1      30.068 -14.367  25.733  1.00  0.00    +0.000 C 
BRANCH    7    8
ATOM    101  H10 UNL A   1      29.200 -14.197  23.803  1.00  0.00    +0.000 H 
ATOM    102  H11 UNL A   1      30.806 -13.434  24.006  1.00  0.00    +0.000 H 
ATOM      8  C6  UNL A   1      29.837 -13.603  24.425  1.00  0.00    +0.000 C 
BRANCH    8    9
ATOM      9  C7  UNL A   1      29.196 -12.226  24.582  1.00  0.00    +0.000 C 
ATOM    103  H12 UNL A   1      29.187 -11.966  25.619  1.00  0.00    +0.000 H 
ATOM    104  H13 UNL A   1      28.201 -12.278  24.188  1.00  0.00    +0.000 H 
BRANCH    9   10
ATOM    105  H14 UNL A   1      29.385 -10.702  23.185  1.00  0.00    +0.000 H 
ATOM     10  N2  UNL A   1      29.916 -11.202  23.846  1.00  0.00    +0.000 N 
BRANCH   10   11
ATOM     11  C8  UNL A   1      31.233 -10.835  23.948  1.00  0.00    +0.000 C 
ATOM     12  O2  UNL A   1      31.851 -10.473  22.952  1.00  0.00    +0.000 O 
BRANCH   11   13
ATOM    106  H15 UNL A   1      33.213 -12.443  24.694  1.00  0.00    +0.000 H 
ATOM    107  H16 UNL A   1      34.366 -12.513  26.830  1.00  0.00    +0.000 H 
ATOM    108  H17 UNL A   1      33.727 -10.995  28.603  1.00  0.00    +0.000 H 
ATOM     13  C9  UNL A   1      31.912 -10.876  25.259  1.00  0.00    +0.000 C 
ATOM     14  C10 UNL A   1      32.941 -11.798  25.453  1.00  0.00    +0.000 C 
ATOM     15  C11 UNL A   1      33.598 -11.841  26.678  1.00  0.00    +0.000 C 
ATOM     16  C12 UNL A   1      33.217 -10.971  27.706  1.00  0.00    +0.000 C 
ATOM     17  C13 UNL A   1      32.157 -10.069  27.542  1.00  0.00    +0.000 C 
ATOM    114  H23 UNL A   1      30.719  -9.384  26.159  1.00  0.00    +0.000 H 
ATOM     28  C20 UNL A   1      31.507 -10.035  26.304  1.00  0.00    +0.000 C 
BRANCH   17   18
ATOM     18  N3  UNL A   1      31.761  -9.143  28.534  1.00  0.00    +0.000 N 
ATOM    109  H18 UNL A   1      32.420  -8.446  28.755  1.00  0.00    +0.000 H 
BRANCH   18   19
ATOM    110  H19 UNL A   1      31.142 -10.512  30.689  1.00  0.00    +0.000 H 
ATOM    111  H20 UNL A   1      29.151 -10.304  32.056  1.00  0.00    +0.000 H 
ATOM    112  H21 UNL A   1      27.608  -7.452  29.370  1.00  0.00    +0.000 H 
ATOM    113  H22 UNL A   1      29.606  -7.659  28.012  1.00  0.00    +0.000 H 
ATOM     19  C14 UNL A   1      30.549  -9.087  29.248  1.00  0.00    +0.000 C 
ATOM     20  C15 UNL A   1      30.398  -9.852  30.411  1.00  0.00    +0.000 C 
ATOM     21  C16 UNL A   1      29.252  -9.735  31.201  1.00  0.00    +0.000 C 
ATOM     22  C17 UNL A   1      28.240  -8.844  30.828  1.00  0.00    +0.000 C 
ATOM     26  C18 UNL A   1      28.363  -8.093  29.656  1.00  0.00    +0.000 C 
ATOM     27  C19 UNL A   1      29.515  -8.217  28.876  1.00  0.00    +0.000 C 
BRANCH   22   23
ATOM     25  O4  UNL A   1      27.040  -9.217  32.936  1.00  0.00    +0.000 O 
ATOM     23  N4  UNL A   1      27.078  -8.680  31.670  1.00  0.00    +0.000 N 
ATOM     24  O3  UNL A   1      26.096  -8.089  31.273  1.00  0.00    +0.000 O 
ENDBRANCH   22   23
ENDBRANCH   18   19
ENDBRANCH   17   18
ENDBRANCH   11   13
ENDBRANCH   10   11
ENDBRANCH    9   10
ENDBRANCH    8    9
ENDBRANCH    7    8
ENDBRANCH    6    7
ENDBRANCH    5    6
ENDBRANCH    4    5
ENDBRANCH    3    4
ENDBRANCH    2    3
ENDBRANCH   29    2
ENDBRANCH   33   32
BRANCH   37   38
ATOM     38  C29 UNL A   1      28.040 -14.362  36.635  1.00  0.00    +0.000 C 
ATOM     39  C30 UNL A   1      27.580 -15.611  37.077  1.00  0.00    +0.000 C 
ATOM     40  F1  UNL A   1      26.645 -16.273  36.376  1.00  0.00    +0.000 F 
ATOM     41  C31 UNL A   1      28.047 -16.169  38.265  1.00  0.00    +0.000 C 
ATOM     42  F2  UNL A   1      27.553 -17.339  38.694  1.00  0.00    +0.000 F 
ATOM     43  C32 UNL A   1      29.006 -15.506  39.016  1.00  0.00    +0.000 C 
ATOM     44  F3  UNL A   1      29.452 -16.043  40.160  1.00  0.00    +0.000 F 
ATOM     45  C33 UNL A   1      29.494 -14.283  38.586  1.00  0.00    +0.000 C 
ATOM     46  F4  UNL A   1      30.431 -13.646  39.304  1.00  0.00    +0.000 F 
ATOM     47  C34 UNL A   1      29.009 -13.710  37.412  1.00  0.00    +0.000 C 
ATOM     48  F5  UNL A   1      29.489 -12.516  37.032  1.00  0.00    +0.000 F 
ENDBRANCH   37   38
BRANCH   54   55
ATOM     65  F10 UNL A   1      23.557  -8.630  35.065  1.00  0.00    +0.000 F 
ATOM     55  C40 UNL A   1      22.349 -10.563  34.381  1.00  0.00    +0.000 C 
ATOM     56  C41 UNL A   1      21.125 -11.246  34.372  1.00  0.00    +0.000 C 
ATOM     57  F6  UNL A   1      21.017 -12.430  33.751  1.00  0.00    +0.000 F 
ATOM     58  C42 UNL A   1      19.999 -10.701  34.984  1.00  0.00    +0.000 C 
ATOM     59  F7  UNL A   1      18.831 -11.357  34.941  1.00  0.00    +0.000 F 
ATOM     60  C43 UNL A   1      20.083  -9.478  35.635  1.00  0.00    +0.000 C 
ATOM     61  F8  UNL A   1      19.003  -8.962  36.237  1.00  0.00    +0.000 F 
ATOM     62  C44 UNL A   1      21.286  -8.788  35.659  1.00  0.00    +0.000 C 
ATOM     63  F9  UNL A   1      21.372  -7.613  36.297  1.00  0.00    +0.000 F 
ATOM     64  C45 UNL A   1      22.407  -9.320  35.028  1.00  0.00    +0.000 C 
ENDBRANCH   54   55
BRANCH   69   70
ATOM     70  C49 UNL A   1      24.868 -10.798  27.870  1.00  0.00    +0.000 C 
ATOM     71  C50 UNL A   1      25.305  -9.593  27.309  1.00  0.00    +0.000 C 
ATOM     72  F11 UNL A   1      26.121  -8.788  28.004  1.00  0.00    +0.000 F 
ATOM     73  C51 UNL A   1      24.895  -9.205  26.035  1.00  0.00    +0.000 C 
ATOM     74  F12 UNL A   1      25.314  -8.039  25.526  1.00  0.00    +0.000 F 
ATOM     75  C52 UNL A   1      24.059 -10.026  25.293  1.00  0.00    +0.000 C 
ATOM     76  F13 UNL A   1      23.683  -9.662  24.059  1.00  0.00    +0.000 F 
ATOM     77  C53 UNL A   1      23.613 -11.224  25.829  1.00  0.00    +0.000 C 
ATOM     78  F14 UNL A   1      22.819 -12.028  25.109  1.00  0.00    +0.000 F 
ATOM     79  C54 UNL A   1      24.002 -11.601  27.113  1.00  0.00    +0.000 C 
ATOM     80  F15 UNL A   1      23.566 -12.769  27.605  1.00  0.00    +0.000 F 
ENDBRANCH   69   70
TORSDOF 18
ENDMDL
MODEL 7
REMARK VINA RESULT:      -9.6     17.777     23.735
ROOT
ATOM     33  C25 UNL A   1      19.858  18.834   5.690  1.00  0.00    +0.000 C 
ATOM     34  C26 UNL A   1      18.799  18.569   6.719  1.00  0.00    +0.000 C 
ATOM     35  N5  UNL A   1      17.570  19.019   6.776  1.00  0.00    +0.000 N 
ATOM     36  C27 UNL A   1      17.009  18.443   7.907  1.00  0.00    +0.000 C 
ATOM     37  C28 UNL A   1      15.761  18.615   8.407  1.00  0.00    +0.000 C 
ATOM     49  C35 UNL A   1      14.765  19.475   7.823  1.00  0.00    +0.000 C 
ATOM     50  C36 UNL A   1      13.492  19.762   8.285  1.00  0.00    +0.000 C 
ATOM     51  C37 UNL A   1      12.868  20.600   7.355  1.00  0.00    +0.000 C 
ATOM     52  C38 UNL A   1      13.768  20.877   6.338  1.00  0.00    +0.000 C 
ATOM     53  N6  UNL A   1      14.928  20.180   6.638  1.00  0.00    +0.000 N 
ATOM     54  C39 UNL A   1      13.581  21.710   5.176  1.00  0.00    +0.000 C 
ATOM     66  C46 UNL A   1      14.522  21.956   4.233  1.00  0.00    +0.000 C 
ATOM     67  N7  UNL A   1      15.828  21.493   4.166  1.00  0.00    +0.000 N 
ATOM     68  C47 UNL A   1      16.338  22.008   3.075  1.00  0.00    +0.000 C 
ATOM     69  C48 UNL A   1      17.723  21.853   2.519  1.00  0.00    +0.000 C 
ATOM     81  C55 UNL A   1      18.633  21.140   3.206  1.00  0.00    +0.000 C 
ATOM     82  C56 UNL A   1      20.006  20.893   2.776  1.00  0.00    +0.000 C 
ATOM     83  C57 UNL A   1      20.579  20.030   3.626  1.00  0.00    +0.000 C 
ATOM     84  C58 UNL A   1      19.629  19.704   4.690  1.00  0.00    +0.000 C 
ATOM     85  N8  UNL A   1      18.520  20.457   4.392  1.00  0.00    +0.000 N 
ATOM     86  C59 UNL A   1      15.403  22.842   2.308  1.00  0.00    +0.000 C 
ATOM     87  C60 UNL A   1      14.318  22.797   3.070  1.00  0.00    +0.000 C 
ATOM     88  C61 UNL A   1      18.022  17.591   8.493  1.00  0.00    +0.000 C 
ATOM     89  C62 UNL A   1      19.162  17.669   7.822  1.00  0.00    +0.000 C 
ATOM    117  H26 UNL A   1      13.076  19.417   9.164  1.00  0.00    +0.000 H 
ATOM    118  H27 UNL A   1      11.900  20.953   7.415  1.00  0.00    +0.000 H 
ATOM    119  H28 UNL A   1      15.748  20.185   6.092  1.00  0.00    +0.000 H 
ATOM    120  H29 UNL A   1      20.462  21.317   1.952  1.00  0.00    +0.000 H 
ATOM    121  H30 UNL A   1      21.537  19.654   3.544  1.00  0.00    +0.000 H 
ATOM    122  H31 UNL A   1      17.724  20.502   4.970  1.00  0.00    +0.000 H 
ATOM    123  H32 UNL A   1      15.551  23.334   1.413  1.00  0.00    +0.000 H 
ATOM    124  H33 UNL A   1      13.439  23.297   2.860  1.00  0.00    +0.000 H 
ATOM    125  H34 UNL A   1      17.875  16.999   9.327  1.00  0.00    +0.000 H 
ATOM    126  H35 UNL A   1      20.067  17.216   8.021  1.00  0.00    +0.000 H 
ENDROOT
BRANCH   33   32
ATOM    127  H36 UNL A   1      22.099  19.508   7.019  1.00  0.00    +0.000 H 
ATOM     32  C24 UNL A   1      21.154  18.115   5.737  1.00  0.00    +0.000 C 
ATOM    115  H24 UNL A   1      22.594  15.254   4.732  1.00  0.00    +0.000 H 
ATOM    116  H25 UNL A   1      20.541  16.521   4.488  1.00  0.00    +0.000 H 
ATOM     90  C63 UNL A   1      22.218  18.626   6.498  1.00  0.00    +0.000 C 
ATOM     91  C64 UNL A   1      23.434  17.945   6.551  1.00  0.00    +0.000 C 
ATOM     29  C21 UNL A   1      23.585  16.734   5.870  1.00  0.00    +0.000 C 
ATOM     30  C22 UNL A   1      22.506  16.185   5.170  1.00  0.00    +0.000 C 
ATOM     31  C23 UNL A   1      21.312  16.894   5.064  1.00  0.00    +0.000 C 
ATOM    128  H37 UNL A   1      24.222  18.334   7.093  1.00  0.00    +0.000 H 
BRANCH   29    2
ATOM      1  O1  UNL A   1      24.943  14.832   5.692  1.00  0.00    +0.000 O 
ATOM      2  C1  UNL A   1      24.884  16.033   5.944  1.00  0.00    +0.000 C 
BRANCH    2    3
ATOM      3  N1  UNL A   1      26.017  16.716   6.306  1.00  0.00    +0.000 N 
ATOM     92  H1  UNL A   1      26.271  16.639   7.254  1.00  0.00    +0.000 H 
BRANCH    3    4
ATOM      4  C2  UNL A   1      26.896  17.537   5.490  1.00  0.00    +0.000 C 
ATOM     93  H2  UNL A   1      26.428  17.705   4.543  1.00  0.00    +0.000 H 
ATOM     94  H3  UNL A   1      27.822  17.014   5.383  1.00  0.00    +0.000 H 
BRANCH    4    5
ATOM      5  C3  UNL A   1      27.195  18.886   6.137  1.00  0.00    +0.000 C 
ATOM     95  H4  UNL A   1      26.264  19.325   6.433  1.00  0.00    +0.000 H 
ATOM     96  H5  UNL A   1      27.722  19.458   5.402  1.00  0.00    +0.000 H 
BRANCH    5    6
ATOM     97  H6  UNL A   1      28.836  19.605   7.270  1.00  0.00    +0.000 H 
ATOM     98  H7  UNL A   1      28.521  17.843   7.378  1.00  0.00    +0.000 H 
ATOM      6  C4  UNL A   1      28.105  18.830   7.365  1.00  0.00    +0.000 C 
BRANCH    6    7
ATOM     99  H8  UNL A   1      26.476  18.473   8.676  1.00  0.00    +0.000 H 
ATOM    100  H9  UNL A   1      27.291  20.062   8.850  1.00  0.00    +0.000 H 
ATOM      7  C5  UNL A   1      27.403  19.007   8.715  1.00  0.00    +0.000 C 
BRANCH    7    8
ATOM    101  H10 UNL A   1      29.205  18.384   9.649  1.00  0.00    +0.000 H 
ATOM    102  H11 UNL A   1      27.709  17.597  10.238  1.00  0.00    +0.000 H 
ATOM      8  C6  UNL A   1      28.182  18.508   9.937  1.00  0.00    +0.000 C 
BRANCH    8    9
ATOM      9  C7  UNL A   1      28.140  19.429  11.154  1.00  0.00    +0.000 C 
ATOM    103  H12 UNL A   1      29.003  20.061  11.139  1.00  0.00    +0.000 H 
ATOM    104  H13 UNL A   1      28.125  18.816  12.032  1.00  0.00    +0.000 H 
BRANCH    9   10
ATOM    105  H14 UNL A   1      26.851  20.873  10.404  1.00  0.00    +0.000 H 
ATOM     10  N2  UNL A   1      26.950  20.261  11.169  1.00  0.00    +0.000 N 
BRANCH   10   11
ATOM     11  C8  UNL A   1      25.946  20.310  12.100  1.00  0.00    +0.000 C 
ATOM     12  O2  UNL A   1      25.790  21.314  12.787  1.00  0.00    +0.000 O 
BRANCH   11   13
ATOM    106  H15 UNL A   1      25.562  18.888  14.312  1.00  0.00    +0.000 H 
ATOM    107  H16 UNL A   1      24.073  16.999  14.643  1.00  0.00    +0.000 H 
ATOM    108  H17 UNL A   1      22.716  16.189  12.811  1.00  0.00    +0.000 H 
ATOM     13  C9  UNL A   1      25.047  19.151  12.280  1.00  0.00    +0.000 C 
ATOM     14  C10 UNL A   1      24.984  18.539  13.532  1.00  0.00    +0.000 C 
ATOM     15  C11 UNL A   1      24.134  17.454  13.719  1.00  0.00    +0.000 C 
ATOM     16  C12 UNL A   1      23.360  16.979  12.655  1.00  0.00    +0.000 C 
ATOM     17  C13 UNL A   1      23.445  17.555  11.379  1.00  0.00    +0.000 C 
ATOM    114  H23 UNL A   1      24.388  19.086  10.275  1.00  0.00    +0.000 H 
ATOM     28  C20 UNL A   1      24.302  18.647  11.205  1.00  0.00    +0.000 C 
BRANCH   17   18
ATOM     18  N3  UNL A   1      22.657  17.139  10.282  1.00  0.00    +0.000 N 
ATOM    109  H18 UNL A   1      21.946  17.762  10.006  1.00  0.00    +0.000 H 
BRANCH   18   19
ATOM    110  H19 UNL A   1      24.738  15.545  10.125  1.00  0.00    +0.000 H 
ATOM    111  H20 UNL A   1      24.880  13.399   9.007  1.00  0.00    +0.000 H 
ATOM    112  H21 UNL A   1      20.943  13.877   7.593  1.00  0.00    +0.000 H 
ATOM    113  H22 UNL A   1      20.806  16.020   8.721  1.00  0.00    +0.000 H 
ATOM     19  C14 UNL A   1      22.753  15.951   9.533  1.00  0.00    +0.000 C 
ATOM     20  C15 UNL A   1      23.926  15.189   9.597  1.00  0.00    +0.000 C 
ATOM     21  C16 UNL A   1      24.011  13.952   8.953  1.00  0.00    +0.000 C 
ATOM     22  C17 UNL A   1      22.913  13.466   8.236  1.00  0.00    +0.000 C 
ATOM     26  C18 UNL A   1      21.745  14.226   8.140  1.00  0.00    +0.000 C 
ATOM     27  C19 UNL A   1      21.671  15.461   8.790  1.00  0.00    +0.000 C 
BRANCH   22   23
ATOM     25  O4  UNL A   1      22.929  12.028   6.247  1.00  0.00    +0.000 O 
ATOM     23  N4  UNL A   1      22.979  12.164   7.615  1.00  0.00    +0.000 N 
ATOM     24  O3  UNL A   1      23.051  11.154   8.284  1.00  0.00    +0.000 O 
ENDBRANCH   22   23
ENDBRANCH   18   19
ENDBRANCH   17   18
ENDBRANCH   11   13
ENDBRANCH   10   11
ENDBRANCH    9   10
ENDBRANCH    8    9
ENDBRANCH    7    8
ENDBRANCH    6    7
ENDBRANCH    5    6
ENDBRANCH    4    5
ENDBRANCH    3    4
ENDBRANCH    2    3
ENDBRANCH   29    2
ENDBRANCH   33   32
BRANCH   37   38
ATOM     38  C29 UNL A   1      15.393  17.833   9.634  1.00  0.00    +0.000 C 
ATOM     39  C30 UNL A   1      15.506  18.378  10.922  1.00  0.00    +0.000 C 
ATOM     40  F1  UNL A   1      15.982  19.622  11.088  1.00  0.00    +0.000 F 
ATOM     41  C31 UNL A   1      15.169  17.632  12.048  1.00  0.00    +0.000 C 
ATOM     42  F2  UNL A   1      15.335  18.156  13.271  1.00  0.00    +0.000 F 
ATOM     43  C32 UNL A   1      14.681  16.341  11.910  1.00  0.00    +0.000 C 
ATOM     44  F3  UNL A   1      14.359  15.625  12.995  1.00  0.00    +0.000 F 
ATOM     45  C33 UNL A   1      14.537  15.791  10.646  1.00  0.00    +0.000 C 
ATOM     46  F4  UNL A   1      14.054  14.547  10.508  1.00  0.00    +0.000 F 
ATOM     47  C34 UNL A   1      14.899  16.525   9.519  1.00  0.00    +0.000 C 
ATOM     48  F5  UNL A   1      14.764  15.957   8.311  1.00  0.00    +0.000 F 
ENDBRANCH   37   38
BRANCH   54   55
ATOM     65  F10 UNL A   1      11.367  20.460   3.912  1.00  0.00    +0.000 F 
ATOM     55  C40 UNL A   1      12.249  22.378   5.013  1.00  0.00    +0.000 C 
ATOM     56  C41 UNL A   1      12.029  23.691   5.448  1.00  0.00    +0.000 C 
ATOM     57  F6  UNL A   1      12.993  24.357   6.102  1.00  0.00    +0.000 F 
ATOM     58  C42 UNL A   1      10.804  24.319   5.233  1.00  0.00    +0.000 C 
ATOM     59  F7  UNL A   1      10.605  25.566   5.681  1.00  0.00    +0.000 F 
ATOM     60  C43 UNL A   1       9.790  23.655   4.559  1.00  0.00    +0.000 C 
ATOM     61  F8  UNL A   1       8.617  24.266   4.339  1.00  0.00    +0.000 F 
ATOM     62  C44 UNL A   1       9.989  22.356   4.116  1.00  0.00    +0.000 C 
ATOM     63  F9  UNL A   1       9.014  21.717   3.454  1.00  0.00    +0.000 F 
ATOM     64  C45 UNL A   1      11.203  21.718   4.350  1.00  0.00    +0.000 C 
ENDBRANCH   54   55
BRANCH   69   70
ATOM     70  C49 UNL A   1      18.118  22.468   1.227  1.00  0.00    +0.000 C 
ATOM     71  C50 UNL A   1      18.603  23.779   1.172  1.00  0.00    +0.000 C 
ATOM     72  F11 UNL A   1      18.640  24.526   2.284  1.00  0.00    +0.000 F 
ATOM     73  C51 UNL A   1      19.042  24.331  -0.030  1.00  0.00    +0.000 C 
ATOM     74  F12 UNL A   1      19.487  25.595  -0.060  1.00  0.00    +0.000 F 
ATOM     75  C52 UNL A   1      19.023  23.575  -1.192  1.00  0.00    +0.000 C 
ATOM     76  F13 UNL A   1      19.466  24.100  -2.343  1.00  0.00    +0.000 F 
ATOM     77  C53 UNL A   1      18.545  22.273  -1.161  1.00  0.00    +0.000 C 
ATOM     78  F14 UNL A   1      18.541  21.533  -2.278  1.00  0.00    +0.000 F 
ATOM     79  C54 UNL A   1      18.083  21.729   0.035  1.00  0.00    +0.000 C 
ATOM     80  F15 UNL A   1      17.636  20.464   0.041  1.00  0.00    +0.000 F 
ENDBRANCH   69   70
TORSDOF 18
ENDMDL
MODEL 8
REMARK VINA RESULT:      -9.6     35.654     41.839
ROOT
ATOM     33  C25 UNL A   1      25.808  36.347  45.648  1.00  0.00    +0.000 C 
ATOM     34  C26 UNL A   1      25.689  37.494  46.608  1.00  0.00    +0.000 C 
ATOM     35  N5  UNL A   1      26.592  38.375  46.961  1.00  0.00    +0.000 N 
ATOM     36  C27 UNL A   1      25.956  39.235  47.844  1.00  0.00    +0.000 C 
ATOM     37  C28 UNL A   1      26.476  40.300  48.502  1.00  0.00    +0.000 C 
ATOM     49  C35 UNL A   1      27.846  40.729  48.394  1.00  0.00    +0.000 C 
ATOM     50  C36 UNL A   1      28.485  41.759  49.062  1.00  0.00    +0.000 C 
ATOM     51  C37 UNL A   1      29.798  41.841  48.588  1.00  0.00    +0.000 C 
ATOM     52  C38 UNL A   1      29.995  40.830  47.661  1.00  0.00    +0.000 C 
ATOM     53  N6  UNL A   1      28.789  40.155  47.552  1.00  0.00    +0.000 N 
ATOM     54  C39 UNL A   1      31.192  40.508  46.925  1.00  0.00    +0.000 C 
ATOM     66  C46 UNL A   1      31.318  39.482  46.049  1.00  0.00    +0.000 C 
ATOM     67  N7  UNL A   1      30.372  38.538  45.675  1.00  0.00    +0.000 N 
ATOM     68  C47 UNL A   1      30.967  37.755  44.810  1.00  0.00    +0.000 C 
ATOM     69  C48 UNL A   1      30.419  36.556  44.093  1.00  0.00    +0.000 C 
ATOM     81  C55 UNL A   1      29.167  36.143  44.360  1.00  0.00    +0.000 C 
ATOM     82  C56 UNL A   1      28.503  35.008  43.725  1.00  0.00    +0.000 C 
ATOM     83  C57 UNL A   1      27.224  34.977  44.122  1.00  0.00    +0.000 C 
ATOM     84  C58 UNL A   1      26.993  36.059  45.080  1.00  0.00    +0.000 C 
ATOM     85  N8  UNL A   1      28.219  36.662  45.206  1.00  0.00    +0.000 N 
ATOM     86  C59 UNL A   1      32.358  38.126  44.518  1.00  0.00    +0.000 C 
ATOM     87  C60 UNL A   1      32.530  39.171  45.317  1.00  0.00    +0.000 C 
ATOM     88  C61 UNL A   1      24.584  38.787  47.956  1.00  0.00    +0.000 C 
ATOM     89  C62 UNL A   1      24.379  37.687  47.246  1.00  0.00    +0.000 C 
ATOM    117  H26 UNL A   1      28.064  42.363  49.786  1.00  0.00    +0.000 H 
ATOM    118  H27 UNL A   1      30.502  42.537  48.879  1.00  0.00    +0.000 H 
ATOM    119  H28 UNL A   1      28.625  39.382  46.964  1.00  0.00    +0.000 H 
ATOM    120  H29 UNL A   1      28.948  34.339  43.078  1.00  0.00    +0.000 H 
ATOM    121  H30 UNL A   1      26.514  34.299  43.803  1.00  0.00    +0.000 H 
ATOM    122  H31 UNL A   1      28.400  37.395  45.840  1.00  0.00    +0.000 H 
ATOM    123  H32 UNL A   1      33.026  37.690  43.863  1.00  0.00    +0.000 H 
ATOM    124  H33 UNL A   1      33.414  39.696  45.406  1.00  0.00    +0.000 H 
ATOM    125  H34 UNL A   1      23.859  39.263  48.516  1.00  0.00    +0.000 H 
ATOM    126  H35 UNL A   1      23.524  37.115  47.163  1.00  0.00    +0.000 H 
ENDROOT
BRANCH   33   32
ATOM    127  H36 UNL A   1      25.072  33.932  46.582  1.00  0.00    +0.000 H 
ATOM     32  C24 UNL A   1      24.618  35.541  45.284  1.00  0.00    +0.000 C 
ATOM    115  H24 UNL A   1      21.800  35.714  43.468  1.00  0.00    +0.000 H 
ATOM    116  H25 UNL A   1      23.840  36.948  43.909  1.00  0.00    +0.000 H 
ATOM     90  C63 UNL A   1      24.398  34.292  45.888  1.00  0.00    +0.000 C 
ATOM     91  C64 UNL A   1      23.274  33.538  45.553  1.00  0.00    +0.000 C 
ATOM     29  C21 UNL A   1      22.347  34.040  44.635  1.00  0.00    +0.000 C 
ATOM     30  C22 UNL A   1      22.524  35.313  44.085  1.00  0.00    +0.000 C 
ATOM     31  C23 UNL A   1      23.677  36.040  44.371  1.00  0.00    +0.000 C 
ATOM    128  H37 UNL A   1      23.126  32.610  45.982  1.00  0.00    +0.000 H 
BRANCH   29    2
ATOM      1  O1  UNL A   1      21.316  32.073  43.885  1.00  0.00    +0.000 O 
ATOM      2  C1  UNL A   1      21.164  33.219  44.300  1.00  0.00    +0.000 C 
BRANCH    2    3
ATOM      3  N1  UNL A   1      19.902  33.738  44.438  1.00  0.00    +0.000 N 
ATOM     92  H1  UNL A   1      19.789  34.661  44.115  1.00  0.00    +0.000 H 
BRANCH    3    4
ATOM      4  C2  UNL A   1      18.709  33.121  44.992  1.00  0.00    +0.000 C 
ATOM     93  H2  UNL A   1      18.160  33.862  45.534  1.00  0.00    +0.000 H 
ATOM     94  H3  UNL A   1      19.022  32.321  45.629  1.00  0.00    +0.000 H 
BRANCH    4    5
ATOM      5  C3  UNL A   1      17.806  32.532  43.914  1.00  0.00    +0.000 C 
ATOM     95  H4  UNL A   1      18.381  31.826  43.349  1.00  0.00    +0.000 H 
ATOM     96  H5  UNL A   1      17.457  33.360  43.332  1.00  0.00    +0.000 H 
BRANCH    5    6
ATOM     97  H6  UNL A   1      15.701  32.308  44.015  1.00  0.00    +0.000 H 
ATOM     98  H7  UNL A   1      16.608  31.873  45.500  1.00  0.00    +0.000 H 
ATOM      6  C4  UNL A   1      16.556  31.818  44.432  1.00  0.00    +0.000 C 
BRANCH    6    7
ATOM     99  H8  UNL A   1      15.830  30.228  43.232  1.00  0.00    +0.000 H 
ATOM    100  H9  UNL A   1      16.071  29.854  44.970  1.00  0.00    +0.000 H 
ATOM      7  C5  UNL A   1      16.458  30.328  44.093  1.00  0.00    +0.000 C 
BRANCH    7    8
ATOM    101  H10 UNL A   1      18.394  29.675  44.671  1.00  0.00    +0.000 H 
ATOM    102  H11 UNL A   1      18.209  30.143  42.953  1.00  0.00    +0.000 H 
ATOM      8  C6  UNL A   1      17.787  29.628  43.790  1.00  0.00    +0.000 C 
BRANCH    8    9
ATOM      9  C7  UNL A   1      17.670  28.164  43.372  1.00  0.00    +0.000 C 
ATOM    103  H12 UNL A   1      18.646  27.726  43.374  1.00  0.00    +0.000 H 
ATOM    104  H13 UNL A   1      17.235  28.134  42.394  1.00  0.00    +0.000 H 
BRANCH    9   10
ATOM    105  H14 UNL A   1      16.422  27.918  45.012  1.00  0.00    +0.000 H 
ATOM     10  N2  UNL A   1      16.814  27.408  44.267  1.00  0.00    +0.000 N 
BRANCH   10   11
ATOM     11  C8  UNL A   1      16.476  26.080  44.217  1.00  0.00    +0.000 C 
ATOM     12  O2  UNL A   1      17.230  25.234  44.687  1.00  0.00    +0.000 O 
BRANCH   11   13
ATOM    106  H15 UNL A   1      14.046  27.031  44.718  1.00  0.00    +0.000 H 
ATOM    107  H16 UNL A   1      11.942  26.386  43.693  1.00  0.00    +0.000 H 
ATOM    108  H17 UNL A   1      11.897  24.661  41.996  1.00  0.00    +0.000 H 
ATOM     13  C9  UNL A   1      15.202  25.664  43.596  1.00  0.00    +0.000 C 
ATOM     14  C10 UNL A   1      14.024  26.294  43.995  1.00  0.00    +0.000 C 
ATOM     15  C11 UNL A   1      12.818  25.921  43.411  1.00  0.00    +0.000 C 
ATOM     16  C12 UNL A   1      12.794  24.914  42.440  1.00  0.00    +0.000 C 
ATOM     17  C13 UNL A   1      13.963  24.240  42.059  1.00  0.00    +0.000 C 
ATOM    114  H23 UNL A   1      16.044  24.144  42.395  1.00  0.00    +0.000 H 
ATOM     28  C20 UNL A   1      15.169  24.627  42.653  1.00  0.00    +0.000 C 
BRANCH   17   18
ATOM     18  N3  UNL A   1      13.997  23.245  41.056  1.00  0.00    +0.000 N 
ATOM    109  H18 UNL A   1      13.797  22.329  41.356  1.00  0.00    +0.000 H 
BRANCH   18   19
ATOM    110  H19 UNL A   1      14.723  25.450  39.827  1.00  0.00    +0.000 H 
ATOM    111  H20 UNL A   1      15.405  25.702  37.514  1.00  0.00    +0.000 H 
ATOM    112  H21 UNL A   1      14.582  21.630  36.830  1.00  0.00    +0.000 H 
ATOM    113  H22 UNL A   1      13.910  21.384  39.147  1.00  0.00    +0.000 H 
ATOM     19  C14 UNL A   1      14.280  23.390  39.685  1.00  0.00    +0.000 C 
ATOM     20  C15 UNL A   1      14.703  24.633  39.196  1.00  0.00    +0.000 C 
ATOM     21  C16 UNL A   1      15.096  24.781  37.864  1.00  0.00    +0.000 C 
ATOM     22  C17 UNL A   1      15.068  23.678  37.005  1.00  0.00    +0.000 C 
ATOM     26  C18 UNL A   1      14.623  22.438  37.469  1.00  0.00    +0.000 C 
ATOM     27  C19 UNL A   1      14.235  22.301  38.804  1.00  0.00    +0.000 C 
BRANCH   22   23
ATOM     25  O4  UNL A   1      14.642  24.087  34.622  1.00  0.00    +0.000 O 
ATOM     23  N4  UNL A   1      15.525  23.816  35.641  1.00  0.00    +0.000 N 
ATOM     24  O3  UNL A   1      16.695  23.668  35.356  1.00  0.00    +0.000 O 
ENDBRANCH   22   23
ENDBRANCH   18   19
ENDBRANCH   17   18
ENDBRANCH   11   13
ENDBRANCH   10   11
ENDBRANCH    9   10
ENDBRANCH    8    9
ENDBRANCH    7    8
ENDBRANCH    6    7
ENDBRANCH    5    6
ENDBRANCH    4    5
ENDBRANCH    3    4
ENDBRANCH    2    3
ENDBRANCH   29    2
ENDBRANCH   33   32
BRANCH   37   38
ATOM     38  C29 UNL A   1      25.549  41.094  49.376  1.00  0.00    +0.000 C 
ATOM     39  C30 UNL A   1      25.378  40.796  50.736  1.00  0.00    +0.000 C 
ATOM     40  F1  UNL A   1      26.027  39.758  51.287  1.00  0.00    +0.000 F 
ATOM     41  C31 UNL A   1      24.505  41.539  51.528  1.00  0.00    +0.000 C 
ATOM     42  F2  UNL A   1      24.318  41.203  52.812  1.00  0.00    +0.000 F 
ATOM     43  C32 UNL A   1      23.814  42.613  50.987  1.00  0.00    +0.000 C 
ATOM     44  F3  UNL A   1      22.974  43.324  51.750  1.00  0.00    +0.000 F 
ATOM     45  C33 UNL A   1      23.988  42.941  49.651  1.00  0.00    +0.000 C 
ATOM     46  F4  UNL A   1      23.330  43.986  49.128  1.00  0.00    +0.000 F 
ATOM     47  C34 UNL A   1      24.839  42.184  48.850  1.00  0.00    +0.000 C 
ATOM     48  F5  UNL A   1      24.972  42.516  47.557  1.00  0.00    +0.000 F 
ENDBRANCH   37   38
BRANCH   54   55
ATOM     65  F10 UNL A   1      33.342  39.704  48.595  1.00  0.00    +0.000 F 
ATOM     55  C40 UNL A   1      32.402  41.360  47.167  1.00  0.00    +0.000 C 
ATOM     56  C41 UNL A   1      32.525  42.637  46.603  1.00  0.00    +0.000 C 
ATOM     57  F6  UNL A   1      31.589  43.096  45.760  1.00  0.00    +0.000 F 
ATOM     58  C42 UNL A   1      33.627  43.439  46.888  1.00  0.00    +0.000 C 
ATOM     59  F7  UNL A   1      33.740  44.647  46.318  1.00  0.00    +0.000 F 
ATOM     60  C43 UNL A   1      34.610  42.990  47.758  1.00  0.00    +0.000 C 
ATOM     61  F8  UNL A   1      35.662  43.771  48.044  1.00  0.00    +0.000 F 
ATOM     62  C44 UNL A   1      34.505  41.731  48.331  1.00  0.00    +0.000 C 
ATOM     63  F9  UNL A   1      35.448  41.301  49.180  1.00  0.00    +0.000 F 
ATOM     64  C45 UNL A   1      33.416  40.918  48.030  1.00  0.00    +0.000 C 
ENDBRANCH   54   55
BRANCH   69   70
ATOM     70  C49 UNL A   1      31.224  35.810  43.093  1.00  0.00    +0.000 C 
ATOM     71  C50 UNL A   1      31.863  34.612  43.432  1.00  0.00    +0.000 C 
ATOM     72  F11 UNL A   1      31.820  34.165  44.695  1.00  0.00    +0.000 F 
ATOM     73  C51 UNL A   1      32.557  33.875  42.476  1.00  0.00    +0.000 C 
ATOM     74  F12 UNL A   1      33.175  32.739  42.828  1.00  0.00    +0.000 F 
ATOM     75  C52 UNL A   1      32.608  34.312  41.160  1.00  0.00    +0.000 C 
ATOM     76  F13 UNL A   1      33.258  33.590  40.237  1.00  0.00    +0.000 F 
ATOM     77  C53 UNL A   1      31.982  35.497  40.802  1.00  0.00    +0.000 C 
ATOM     78  F14 UNL A   1      32.013  35.913  39.529  1.00  0.00    +0.000 F 
ATOM     79  C54 UNL A   1      31.308  36.247  41.763  1.00  0.00    +0.000 C 
ATOM     80  F15 UNL A   1      30.703  37.384  41.389  1.00  0.00    +0.000 F 
ENDBRANCH   69   70
TORSDOF 18
ENDMDL
MODEL 9
REMARK VINA RESULT:      -9.6     42.072     48.292
ROOT
ATOM     33  C25 UNL A   1      53.498  20.234  11.823  1.00  0.00    +0.000 C 
ATOM     34  C26 UNL A   1      54.857  19.634  11.614  1.00  0.00    +0.000 C 
ATOM     35  N5  UNL A   1      55.870  19.575  12.441  1.00  0.00    +0.000 N 
ATOM     36  C27 UNL A   1      56.869  18.888  11.766  1.00  0.00    +0.000 C 
ATOM     37  C28 UNL A   1      58.121  18.588  12.192  1.00  0.00    +0.000 C 
ATOM     49  C35 UNL A   1      58.649  18.963  13.479  1.00  0.00    +0.000 C 
ATOM     50  C36 UNL A   1      59.921  18.757  13.983  1.00  0.00    +0.000 C 
ATOM     51  C37 UNL A   1      59.954  19.236  15.297  1.00  0.00    +0.000 C 
ATOM     52  C38 UNL A   1      58.717  19.785  15.595  1.00  0.00    +0.000 C 
ATOM     53  N6  UNL A   1      57.926  19.611  14.471  1.00  0.00    +0.000 N 
ATOM     54  C39 UNL A   1      58.287  20.416  16.819  1.00  0.00    +0.000 C 
ATOM     66  C46 UNL A   1      57.063  20.957  17.030  1.00  0.00    +0.000 C 
ATOM     67  N7  UNL A   1      55.985  21.034  16.159  1.00  0.00    +0.000 N 
ATOM     68  C47 UNL A   1      55.033  21.647  16.817  1.00  0.00    +0.000 C 
ATOM     69  C48 UNL A   1      53.653  22.012  16.355  1.00  0.00    +0.000 C 
ATOM     81  C55 UNL A   1      53.291  21.747  15.087  1.00  0.00    +0.000 C 
ATOM     82  C56 UNL A   1      51.980  22.030  14.511  1.00  0.00    +0.000 C 
ATOM     83  C57 UNL A   1      51.924  21.504  13.279  1.00  0.00    +0.000 C 
ATOM     84  C58 UNL A   1      53.215  20.892  12.962  1.00  0.00    +0.000 C 
ATOM     85  N8  UNL A   1      53.985  21.138  14.070  1.00  0.00    +0.000 N 
ATOM     86  C59 UNL A   1      55.391  22.011  18.195  1.00  0.00    +0.000 C 
ATOM     87  C60 UNL A   1      56.646  21.589  18.266  1.00  0.00    +0.000 C 
ATOM     88  C61 UNL A   1      56.333  18.529  10.470  1.00  0.00    +0.000 C 
ATOM     89  C62 UNL A   1      55.107  19.007  10.309  1.00  0.00    +0.000 C 
ATOM    117  H26 UNL A   1      60.710  18.325  13.477  1.00  0.00    +0.000 H 
ATOM    118  H27 UNL A   1      60.762  19.188  15.937  1.00  0.00    +0.000 H 
ATOM    119  H28 UNL A   1      56.989  19.904  14.387  1.00  0.00    +0.000 H 
ATOM    120  H29 UNL A   1      51.220  22.551  14.976  1.00  0.00    +0.000 H 
ATOM    121  H30 UNL A   1      51.102  21.525  12.655  1.00  0.00    +0.000 H 
ATOM    122  H31 UNL A   1      54.940  20.902  14.131  1.00  0.00    +0.000 H 
ATOM    123  H32 UNL A   1      54.816  22.473  18.918  1.00  0.00    +0.000 H 
ATOM    124  H33 UNL A   1      57.250  21.697  19.096  1.00  0.00    +0.000 H 
ATOM    125  H34 UNL A   1      56.840  17.973   9.763  1.00  0.00    +0.000 H 
ATOM    126  H35 UNL A   1      54.490  18.952   9.484  1.00  0.00    +0.000 H 
ENDROOT
BRANCH   33   32
ATOM    127  H36 UNL A   1      51.768  18.198  11.498  1.00  0.00    +0.000 H 
ATOM     32  C24 UNL A   1      52.438  20.079  10.798  1.00  0.00    +0.000 C 
ATOM    115  H24 UNL A   1      50.952  21.758   8.298  1.00  0.00    +0.000 H 
ATOM    116  H25 UNL A   1      52.813  21.930   9.844  1.00  0.00    +0.000 H 
ATOM     90  C63 UNL A   1      51.623  18.935  10.791  1.00  0.00    +0.000 C 
ATOM     91  C64 UNL A   1      50.619  18.793   9.833  1.00  0.00    +0.000 C 
ATOM     29  C21 UNL A   1      50.404  19.806   8.895  1.00  0.00    +0.000 C 
ATOM     30  C22 UNL A   1      51.164  20.979   8.942  1.00  0.00    +0.000 C 
ATOM     31  C23 UNL A   1      52.207  21.095   9.857  1.00  0.00    +0.000 C 
ATOM    128  H37 UNL A   1      50.036  17.941   9.817  1.00  0.00    +0.000 H 
BRANCH   29    2
ATOM      1  O1  UNL A   1      48.515  20.529   7.710  1.00  0.00    +0.000 O 
ATOM      2  C1  UNL A   1      49.332  19.630   7.892  1.00  0.00    +0.000 C 
BRANCH    2    3
ATOM      3  N1  UNL A   1      49.242  18.464   7.176  1.00  0.00    +0.000 N 
ATOM     92  H1  UNL A   1      49.726  17.697   7.558  1.00  0.00    +0.000 H 
BRANCH    3    4
ATOM      4  C2  UNL A   1      48.535  18.198   5.935  1.00  0.00    +0.000 C 
ATOM     93  H2  UNL A   1      49.244  18.173   5.134  1.00  0.00    +0.000 H 
ATOM     94  H3  UNL A   1      47.815  18.977   5.797  1.00  0.00    +0.000 H 
BRANCH    4    5
ATOM      5  C3  UNL A   1      47.783  16.871   5.967  1.00  0.00    +0.000 C 
ATOM     95  H4  UNL A   1      48.276  16.228   6.667  1.00  0.00    +0.000 H 
ATOM     96  H5  UNL A   1      47.794  16.498   4.964  1.00  0.00    +0.000 H 
BRANCH    5    6
ATOM     97  H6  UNL A   1      45.964  17.948   6.116  1.00  0.00    +0.000 H 
ATOM     98  H7  UNL A   1      46.278  16.757   7.418  1.00  0.00    +0.000 H 
ATOM      6  C4  UNL A   1      46.311  16.969   6.369  1.00  0.00    +0.000 C 
BRANCH    6    7
ATOM     99  H8  UNL A   1      44.560  16.489   5.274  1.00  0.00    +0.000 H 
ATOM    100  H9  UNL A   1      45.087  15.273   6.483  1.00  0.00    +0.000 H 
ATOM      7  C5  UNL A   1      45.376  15.951   5.707  1.00  0.00    +0.000 C 
BRANCH    7    8
ATOM    101  H10 UNL A   1      45.549  14.122   4.644  1.00  0.00    +0.000 H 
ATOM    102  H11 UNL A   1      47.057  15.070   4.814  1.00  0.00    +0.000 H 
ATOM      8  C6  UNL A   1      46.008  15.088   4.610  1.00  0.00    +0.000 C 
BRANCH    8    9
ATOM      9  C7  UNL A   1      45.861  15.632   3.191  1.00  0.00    +0.000 C 
ATOM    103  H12 UNL A   1      45.278  14.943   2.616  1.00  0.00    +0.000 H 
ATOM    104  H13 UNL A   1      46.842  15.747   2.778  1.00  0.00    +0.000 H 
BRANCH    9   10
ATOM    105  H14 UNL A   1      44.263  16.933   3.434  1.00  0.00    +0.000 H 
ATOM     10  N2  UNL A   1      45.210  16.930   3.168  1.00  0.00    +0.000 N 
BRANCH   10   11
ATOM     11  C8  UNL A   1      45.735  18.149   2.828  1.00  0.00    +0.000 C 
ATOM     12  O2  UNL A   1      46.949  18.322   2.837  1.00  0.00    +0.000 O 
BRANCH   11   13
ATOM    106  H15 UNL A   1      45.938  20.703   3.531  1.00  0.00    +0.000 H 
ATOM    107  H16 UNL A   1      44.497  22.553   2.901  1.00  0.00    +0.000 H 
ATOM    108  H17 UNL A   1      42.586  22.167   1.468  1.00  0.00    +0.000 H 
ATOM     13  C9  UNL A   1      44.838  19.260   2.449  1.00  0.00    +0.000 C 
ATOM     14  C10 UNL A   1      45.121  20.542   2.921  1.00  0.00    +0.000 C 
ATOM     15  C11 UNL A   1      44.292  21.600   2.564  1.00  0.00    +0.000 C 
ATOM     16  C12 UNL A   1      43.181  21.372   1.746  1.00  0.00    +0.000 C 
ATOM     17  C13 UNL A   1      42.857  20.083   1.298  1.00  0.00    +0.000 C 
ATOM    114  H23 UNL A   1      43.483  18.069   1.352  1.00  0.00    +0.000 H 
ATOM     28  C20 UNL A   1      43.701  19.028   1.663  1.00  0.00    +0.000 C 
BRANCH   17   18
ATOM     18  N3  UNL A   1      41.770  19.807   0.439  1.00  0.00    +0.000 N 
ATOM    109  H18 UNL A   1      41.908  19.070  -0.201  1.00  0.00    +0.000 H 
BRANCH   18   19
ATOM    110  H19 UNL A   1      40.718  21.000  -1.651  1.00  0.00    +0.000 H 
ATOM    111  H20 UNL A   1      38.492  21.936  -1.859  1.00  0.00    +0.000 H 
ATOM    112  H21 UNL A   1      37.735  21.026   2.182  1.00  0.00    +0.000 H 
ATOM    113  H22 UNL A   1      39.961  20.083   2.379  1.00  0.00    +0.000 H 
ATOM     19  C14 UNL A   1      40.517  20.444   0.376  1.00  0.00    +0.000 C 
ATOM     20  C15 UNL A   1      40.083  20.993  -0.838  1.00  0.00    +0.000 C 
ATOM     21  C16 UNL A   1      38.801  21.534  -0.960  1.00  0.00    +0.000 C 
ATOM     22  C17 UNL A   1      37.937  21.529   0.140  1.00  0.00    +0.000 C 
ATOM     26  C18 UNL A   1      38.364  21.010   1.365  1.00  0.00    +0.000 C 
ATOM     27  C19 UNL A   1      39.648  20.470   1.475  1.00  0.00    +0.000 C 
BRANCH   22   23
ATOM     25  O4  UNL A   1      35.614  21.707   0.910  1.00  0.00    +0.000 O 
ATOM     23  N4  UNL A   1      36.593  22.038   0.003  1.00  0.00    +0.000 N 
ATOM     24  O3  UNL A   1      36.285  22.748  -0.932  1.00  0.00    +0.000 O 
ENDBRANCH   22   23
ENDBRANCH   18   19
ENDBRANCH   17   18
ENDBRANCH   11   13
ENDBRANCH   10   11
ENDBRANCH    9   10
ENDBRANCH    8    9
ENDBRANCH    7    8
ENDBRANCH    6    7
ENDBRANCH    5    6
ENDBRANCH    4    5
ENDBRANCH    3    4
ENDBRANCH    2    3
ENDBRANCH   29    2
ENDBRANCH   33   32
BRANCH   37   38
ATOM     38  C29 UNL A   1      58.996  17.792  11.269  1.00  0.00    +0.000 C 
ATOM     39  C30 UNL A   1      59.021  16.390  11.298  1.00  0.00    +0.000 C 
ATOM     40  F1  UNL A   1      58.273  15.720  12.189  1.00  0.00    +0.000 F 
ATOM     41  C31 UNL A   1      59.847  15.670  10.439  1.00  0.00    +0.000 C 
ATOM     42  F2  UNL A   1      59.894  14.332  10.522  1.00  0.00    +0.000 F 
ATOM     43  C32 UNL A   1      60.638  16.333   9.513  1.00  0.00    +0.000 C 
ATOM     44  F3  UNL A   1      61.434  15.638   8.689  1.00  0.00    +0.000 F 
ATOM     45  C33 UNL A   1      60.610  17.717   9.448  1.00  0.00    +0.000 C 
ATOM     46  F4  UNL A   1      61.364  18.361   8.546  1.00  0.00    +0.000 F 
ATOM     47  C34 UNL A   1      59.805  18.442  10.324  1.00  0.00    +0.000 C 
ATOM     48  F5  UNL A   1      59.813  19.781  10.248  1.00  0.00    +0.000 F 
ENDBRANCH   37   38
BRANCH   54   55
ATOM     65  F10 UNL A   1      58.836  18.257  18.578  1.00  0.00    +0.000 F 
ATOM     55  C40 UNL A   1      59.282  20.505  17.937  1.00  0.00    +0.000 C 
ATOM     56  C41 UNL A   1      59.981  21.690  18.204  1.00  0.00    +0.000 C 
ATOM     57  F6  UNL A   1      59.833  22.757  17.404  1.00  0.00    +0.000 F 
ATOM     58  C42 UNL A   1      60.856  21.774  19.284  1.00  0.00    +0.000 C 
ATOM     59  F7  UNL A   1      61.536  22.908  19.507  1.00  0.00    +0.000 F 
ATOM     60  C43 UNL A   1      61.028  20.687  20.128  1.00  0.00    +0.000 C 
ATOM     61  F8  UNL A   1      61.858  20.775  21.177  1.00  0.00    +0.000 F 
ATOM     62  C44 UNL A   1      60.342  19.506  19.884  1.00  0.00    +0.000 C 
ATOM     63  F9  UNL A   1      60.498  18.458  20.705  1.00  0.00    +0.000 F 
ATOM     64  C45 UNL A   1      59.485  19.411  18.792  1.00  0.00    +0.000 C 
ENDBRANCH   54   55
BRANCH   69   70
ATOM     70  C49 UNL A   1      52.673  22.662  17.261  1.00  0.00    +0.000 C 
ATOM     71  C50 UNL A   1      52.503  24.051  17.262  1.00  0.00    +0.000 C 
ATOM     72  F11 UNL A   1      53.288  24.821  16.495  1.00  0.00    +0.000 F 
ATOM     73  C51 UNL A   1      51.533  24.654  18.059  1.00  0.00    +0.000 C 
ATOM     74  F12 UNL A   1      51.401  25.988  18.055  1.00  0.00    +0.000 F 
ATOM     75  C52 UNL A   1      50.703  23.878  18.854  1.00  0.00    +0.000 C 
ATOM     76  F13 UNL A   1      49.756  24.458  19.603  1.00  0.00    +0.000 F 
ATOM     77  C53 UNL A   1      50.854  22.499  18.869  1.00  0.00    +0.000 C 
ATOM     78  F14 UNL A   1      50.042  21.744  19.621  1.00  0.00    +0.000 F 
ATOM     79  C54 UNL A   1      51.840  21.897  18.091  1.00  0.00    +0.000 C 
ATOM     80  F15 UNL A   1      51.958  20.562  18.115  1.00  0.00    +0.000 F 
ENDBRANCH   69   70
TORSDOF 18
ENDMDL
MODEL 10
REMARK VINA RESULT:      -9.6     43.685     50.574
ROOT
ATOM     33  C25 UNL A   1      14.242  53.990   5.122  1.00  0.00    +0.000 C 
ATOM     34  C26 UNL A   1      15.171  54.407   4.021  1.00  0.00    +0.000 C 
ATOM     35  N5  UNL A   1      15.662  53.694   3.038  1.00  0.00    +0.000 N 
ATOM     36  C27 UNL A   1      16.435  54.568   2.286  1.00  0.00    +0.000 C 
ATOM     37  C28 UNL A   1      17.167  54.303   1.177  1.00  0.00    +0.000 C 
ATOM     49  C35 UNL A   1      17.276  53.001   0.571  1.00  0.00    +0.000 C 
ATOM     50  C36 UNL A   1      18.037  52.616  -0.519  1.00  0.00    +0.000 C 
ATOM     51  C37 UNL A   1      17.776  51.267  -0.781  1.00  0.00    +0.000 C 
ATOM     52  C38 UNL A   1      16.891  50.797   0.175  1.00  0.00    +0.000 C 
ATOM     53  N6  UNL A   1      16.592  51.871   0.999  1.00  0.00    +0.000 N 
ATOM     54  C39 UNL A   1      16.352  49.468   0.323  1.00  0.00    +0.000 C 
ATOM     66  C46 UNL A   1      15.506  49.072   1.305  1.00  0.00    +0.000 C 
ATOM     67  N7  UNL A   1      14.987  49.815   2.356  1.00  0.00    +0.000 N 
ATOM     68  C47 UNL A   1      14.227  48.995   3.037  1.00  0.00    +0.000 C 
ATOM     69  C48 UNL A   1      13.431  49.261   4.281  1.00  0.00    +0.000 C 
ATOM     81  C55 UNL A   1      13.498  50.473   4.859  1.00  0.00    +0.000 C 
ATOM     82  C56 UNL A   1      12.766  50.875   6.057  1.00  0.00    +0.000 C 
ATOM     83  C57 UNL A   1      12.957  52.185   6.263  1.00  0.00    +0.000 C 
ATOM     84  C58 UNL A   1      13.866  52.703   5.241  1.00  0.00    +0.000 C 
ATOM     85  N8  UNL A   1      14.185  51.603   4.486  1.00  0.00    +0.000 N 
ATOM     86  C59 UNL A   1      14.157  47.636   2.481  1.00  0.00    +0.000 C 
ATOM     87  C60 UNL A   1      14.974  47.731   1.440  1.00  0.00    +0.000 C 
ATOM     88  C61 UNL A   1      16.329  55.870   2.911  1.00  0.00    +0.000 C 
ATOM     89  C62 UNL A   1      15.595  55.814   4.014  1.00  0.00    +0.000 C 
ATOM    117  H26 UNL A   1      18.686  53.221  -1.048  1.00  0.00    +0.000 H 
ATOM    118  H27 UNL A   1      18.174  50.715  -1.556  1.00  0.00    +0.000 H 
ATOM    119  H28 UNL A   1      15.986  51.838   1.774  1.00  0.00    +0.000 H 
ATOM    120  H29 UNL A   1      12.197  50.250   6.649  1.00  0.00    +0.000 H 
ATOM    121  H30 UNL A   1      12.529  52.741   7.021  1.00  0.00    +0.000 H 
ATOM    122  H31 UNL A   1      14.840  51.620   3.750  1.00  0.00    +0.000 H 
ATOM    123  H32 UNL A   1      13.616  46.823   2.813  1.00  0.00    +0.000 H 
ATOM    124  H33 UNL A   1      15.201  46.949   0.806  1.00  0.00    +0.000 H 
ATOM    125  H34 UNL A   1      16.768  56.730   2.546  1.00  0.00    +0.000 H 
ATOM    126  H35 UNL A   1      15.378  56.563   4.690  1.00  0.00    +0.000 H 
ENDROOT
BRANCH   33   32
ATOM    127  H36 UNL A   1      12.048  55.527   4.851  1.00  0.00    +0.000 H 
ATOM     32  C24 UNL A   1      13.694  54.991   6.068  1.00  0.00    +0.000 C 
ATOM    115  H24 UNL A   1      14.170  56.192   9.167  1.00  0.00    +0.000 H 
ATOM    116  H25 UNL A   1      15.182  54.701   7.545  1.00  0.00    +0.000 H 
ATOM     90  C63 UNL A   1      12.524  55.699   5.750  1.00  0.00    +0.000 C 
ATOM     91  C64 UNL A   1      12.003  56.634   6.645  1.00  0.00    +0.000 C 
ATOM     29  C21 UNL A   1      12.630  56.845   7.875  1.00  0.00    +0.000 C 
ATOM     30  C22 UNL A   1      13.754  56.091   8.228  1.00  0.00    +0.000 C 
ATOM     31  C23 UNL A   1      14.311  55.203   7.310  1.00  0.00    +0.000 C 
ATOM    128  H37 UNL A   1      11.155  57.169   6.399  1.00  0.00    +0.000 H 
BRANCH   29    2
ATOM      1  O1  UNL A   1      12.575  58.949   8.906  1.00  0.00    +0.000 O 
ATOM      2  C1  UNL A   1      12.056  57.841   8.805  1.00  0.00    +0.000 C 
BRANCH    2    3
ATOM      3  N1  UNL A   1      10.955  57.526   9.560  1.00  0.00    +0.000 N 
ATOM     92  H1  UNL A   1      10.089  57.624   9.103  1.00  0.00    +0.000 H 
BRANCH    3    4
ATOM      4  C2  UNL A   1      10.885  57.069  10.937  1.00  0.00    +0.000 C 
ATOM     93  H2  UNL A   1       9.907  57.276  11.318  1.00  0.00    +0.000 H 
ATOM     94  H3  UNL A   1      11.639  57.586  11.491  1.00  0.00    +0.000 H 
BRANCH    4    5
ATOM      5  C3  UNL A   1      11.156  55.573  11.067  1.00  0.00    +0.000 C 
ATOM     95  H4  UNL A   1      12.188  55.402  10.836  1.00  0.00    +0.000 H 
ATOM     96  H5  UNL A   1      10.482  55.088  10.393  1.00  0.00    +0.000 H 
BRANCH    5    6
ATOM     97  H6  UNL A   1      10.846  53.915  12.351  1.00  0.00    +0.000 H 
ATOM     98  H7  UNL A   1       9.951  55.411  12.772  1.00  0.00    +0.000 H 
ATOM      6  C4  UNL A   1      10.876  54.980  12.449  1.00  0.00    +0.000 C 
BRANCH    6    7
ATOM     99  H8  UNL A   1      11.423  55.202  14.486  1.00  0.00    +0.000 H 
ATOM    100  H9  UNL A   1      12.214  56.327  13.333  1.00  0.00    +0.000 H 
ATOM      7  C5  UNL A   1      11.900  55.325  13.535  1.00  0.00    +0.000 C 
BRANCH    7    8
ATOM    101  H10 UNL A   1      13.607  54.529  14.514  1.00  0.00    +0.000 H 
ATOM    102  H11 UNL A   1      13.803  54.885  12.771  1.00  0.00    +0.000 H 
ATOM      8  C6  UNL A   1      13.176  54.477  13.536  1.00  0.00    +0.000 C 
BRANCH    8    9
ATOM      9  C7  UNL A   1      12.979  53.005  13.182  1.00  0.00    +0.000 C 
ATOM    103  H12 UNL A   1      12.018  52.885  12.727  1.00  0.00    +0.000 H 
ATOM    104  H13 UNL A   1      13.052  52.435  14.086  1.00  0.00    +0.000 H 
BRANCH    9   10
ATOM    105  H14 UNL A   1      13.777  52.606  11.308  1.00  0.00    +0.000 H 
ATOM     10  N2  UNL A   1      13.995  52.523  12.264  1.00  0.00    +0.000 N 
BRANCH   10   11
ATOM     11  C8  UNL A   1      15.217  51.969  12.547  1.00  0.00    +0.000 C 
ATOM     12  O2  UNL A   1      15.809  52.275  13.577  1.00  0.00    +0.000 O 
BRANCH   11   13
ATOM    106  H15 UNL A   1      17.723  51.928  11.664  1.00  0.00    +0.000 H 
ATOM    107  H16 UNL A   1      18.754  50.334  10.150  1.00  0.00    +0.000 H 
ATOM    108  H17 UNL A   1      17.452  48.509   9.239  1.00  0.00    +0.000 H 
ATOM     13  C9  UNL A   1      15.825  51.001  11.612  1.00  0.00    +0.000 C 
ATOM     14  C10 UNL A   1      17.169  51.149  11.272  1.00  0.00    +0.000 C 
ATOM     15  C11 UNL A   1      17.758  50.239  10.401  1.00  0.00    +0.000 C 
ATOM     16  C12 UNL A   1      16.999  49.192   9.866  1.00  0.00    +0.000 C 
ATOM     17  C13 UNL A   1      15.636  49.054  10.162  1.00  0.00    +0.000 C 
ATOM    114  H23 UNL A   1      14.054  49.901  11.272  1.00  0.00    +0.000 H 
ATOM     28  C20 UNL A   1      15.057  49.976  11.042  1.00  0.00    +0.000 C 
BRANCH   17   18
ATOM     18  N3  UNL A   1      14.837  47.993   9.680  1.00  0.00    +0.000 N 
ATOM    109  H18 UNL A   1      15.320  47.274   9.212  1.00  0.00    +0.000 H 
BRANCH   18   19
ATOM    110  H19 UNL A   1      12.995  49.596   8.713  1.00  0.00    +0.000 H 
ATOM    111  H20 UNL A   1      10.595  49.253   8.692  1.00  0.00    +0.000 H 
ATOM    112  H21 UNL A   1      11.088  45.683  10.869  1.00  0.00    +0.000 H 
ATOM    113  H22 UNL A   1      13.488  46.028  10.878  1.00  0.00    +0.000 H 
ATOM     19  C14 UNL A   1      13.443  47.829   9.779  1.00  0.00    +0.000 C 
ATOM     20  C15 UNL A   1      12.594  48.757   9.162  1.00  0.00    +0.000 C 
ATOM     21  C16 UNL A   1      11.211  48.562   9.149  1.00  0.00    +0.000 C 
ATOM     22  C17 UNL A   1      10.663  47.429   9.758  1.00  0.00    +0.000 C 
ATOM     26  C18 UNL A   1      11.494  46.508  10.401  1.00  0.00    +0.000 C 
ATOM     27  C19 UNL A   1      12.876  46.712  10.406  1.00  0.00    +0.000 C 
BRANCH   22   23
ATOM     25  O4  UNL A   1       8.638  46.768   8.539  1.00  0.00    +0.000 O 
ATOM     23  N4  UNL A   1       9.239  47.197   9.700  1.00  0.00    +0.000 N 
ATOM     24  O3  UNL A   1       8.531  47.401  10.664  1.00  0.00    +0.000 O 
ENDBRANCH   22   23
ENDBRANCH   18   19
ENDBRANCH   17   18
ENDBRANCH   11   13
ENDBRANCH   10   11
ENDBRANCH    9   10
ENDBRANCH    8    9
ENDBRANCH    7    8
ENDBRANCH    6    7
ENDBRANCH    5    6
ENDBRANCH    4    5
ENDBRANCH    3    4
ENDBRANCH    2    3
ENDBRANCH   29    2
ENDBRANCH   33   32
BRANCH   37   38
ATOM     38  C29 UNL A   1      17.885  55.451   0.529  1.00  0.00    +0.000 C 
ATOM     39  C30 UNL A   1      19.144  55.881   0.972  1.00  0.00    +0.000 C 
ATOM     40  F1  UNL A   1      19.731  55.284   2.021  1.00  0.00    +0.000 F 
ATOM     41  C31 UNL A   1      19.789  56.955   0.364  1.00  0.00    +0.000 C 
ATOM     42  F2  UNL A   1      20.969  57.382   0.838  1.00  0.00    +0.000 F 
ATOM     43  C32 UNL A   1      19.206  57.598  -0.718  1.00  0.00    +0.000 C 
ATOM     44  F3  UNL A   1      19.827  58.632  -1.300  1.00  0.00    +0.000 F 
ATOM     45  C33 UNL A   1      17.973  57.173  -1.188  1.00  0.00    +0.000 C 
ATOM     46  F4  UNL A   1      17.411  57.785  -2.241  1.00  0.00    +0.000 F 
ATOM     47  C34 UNL A   1      17.313  56.117  -0.565  1.00  0.00    +0.000 C 
ATOM     48  F5  UNL A   1      16.113  55.741  -1.033  1.00  0.00    +0.000 F 
ENDBRANCH   37   38
BRANCH   54   55
ATOM     65  F10 UNL A   1      18.805  48.053   0.522  1.00  0.00    +0.000 F 
ATOM     55  C40 UNL A   1      16.782  48.433  -0.674  1.00  0.00    +0.000 C 
ATOM     56  C41 UNL A   1      16.002  48.128  -1.797  1.00  0.00    +0.000 C 
ATOM     57  F6  UNL A   1      14.802  48.704  -1.963  1.00  0.00    +0.000 F 
ATOM     58  C42 UNL A   1      16.445  47.209  -2.745  1.00  0.00    +0.000 C 
ATOM     59  F7  UNL A   1      15.673  46.911  -3.799  1.00  0.00    +0.000 F 
ATOM     60  C43 UNL A   1      17.683  46.600  -2.600  1.00  0.00    +0.000 C 
ATOM     61  F8  UNL A   1      18.115  45.728  -3.521  1.00  0.00    +0.000 F 
ATOM     62  C44 UNL A   1      18.473  46.891  -1.497  1.00  0.00    +0.000 C 
ATOM     63  F9  UNL A   1      19.674  46.312  -1.361  1.00  0.00    +0.000 F 
ATOM     64  C45 UNL A   1      18.022  47.792  -0.536  1.00  0.00    +0.000 C 
ENDBRANCH   54   55
BRANCH   69   70
ATOM     70  C49 UNL A   1      12.571  48.219   4.894  1.00  0.00    +0.000 C 
ATOM     71  C50 UNL A   1      11.269  47.995   4.431  1.00  0.00    +0.000 C 
ATOM     72  F11 UNL A   1      10.756  48.781   3.474  1.00  0.00    +0.000 F 
ATOM     73  C51 UNL A   1      10.487  46.970   4.957  1.00  0.00    +0.000 C 
ATOM     74  F12 UNL A   1       9.238  46.785   4.509  1.00  0.00    +0.000 F 
ATOM     75  C52 UNL A   1      11.000  46.137   5.941  1.00  0.00    +0.000 C 
ATOM     76  F13 UNL A   1      10.254  45.138   6.431  1.00  0.00    +0.000 F 
ATOM     77  C53 UNL A   1      12.287  46.341   6.416  1.00  0.00    +0.000 C 
ATOM     78  F14 UNL A   1      12.792  45.529   7.354  1.00  0.00    +0.000 F 
ATOM     79  C54 UNL A   1      13.060  47.382   5.908  1.00  0.00    +0.000 C 
ATOM     80  F15 UNL A   1      14.305  47.551   6.376  1.00  0.00    +0.000 F 
ENDBRANCH   69   70
TORSDOF 18
ENDMDL
