MODEL 1
REMARK VINA RESULT:     -11.7      0.000      0.000
ROOT
ATOM    129  H26 UNL A   1      38.209  28.207  29.900  1.00  0.00    +0.000 H 
ATOM    130  H27 UNL A   1      38.971  26.109  28.688  1.00  0.00    +0.000 H 
ATOM    131  H28 UNL A   1      42.052  28.893  28.476  1.00  0.00    +0.000 H 
ATOM    132  H29 UNL A   1      40.574  32.795  31.287  1.00  0.00    +0.000 H 
ATOM    133  H30 UNL A   1      42.806  33.901  30.696  1.00  0.00    +0.000 H 
ATOM    134  H31 UNL A   1      45.706  25.623  25.795  1.00  0.00    +0.000 H 
ATOM    135  H32 UNL A   1      43.351  24.649  26.048  1.00  0.00    +0.000 H 
ATOM     27  C20 UNL A   1      41.605  26.270  27.606  1.00  0.00    +0.000 C 
ATOM     28  C21 UNL A   1      43.004  26.591  27.166  1.00  0.00    +0.000 C 
ATOM     29  N3  UNL A   1      43.718  27.665  27.393  1.00  0.00    +0.000 N 
ATOM     30  C22 UNL A   1      44.950  27.431  26.800  1.00  0.00    +0.000 C 
ATOM     31  C23 UNL A   1      46.014  28.264  26.710  1.00  0.00    +0.000 C 
ATOM     43  C30 UNL A   1      46.045  29.599  27.246  1.00  0.00    +0.000 C 
ATOM     44  C31 UNL A   1      47.049  30.546  27.147  1.00  0.00    +0.000 C 
ATOM     45  C32 UNL A   1      46.657  31.676  27.872  1.00  0.00    +0.000 C 
ATOM     46  C33 UNL A   1      45.388  31.452  28.382  1.00  0.00    +0.000 C 
ATOM     47  N4  UNL A   1      45.024  30.174  27.988  1.00  0.00    +0.000 N 
ATOM     48  C34 UNL A   1      44.573  32.333  29.180  1.00  0.00    +0.000 C 
ATOM     60  C41 UNL A   1      43.315  32.060  29.601  1.00  0.00    +0.000 C 
ATOM     61  N5  UNL A   1      42.548  30.924  29.379  1.00  0.00    +0.000 N 
ATOM     62  C42 UNL A   1      41.412  31.129  29.999  1.00  0.00    +0.000 C 
ATOM     63  C43 UNL A   1      40.203  30.238  30.082  1.00  0.00    +0.000 C 
ATOM     75  C50 UNL A   1      40.219  29.046  29.454  1.00  0.00    +0.000 C 
ATOM     76  C51 UNL A   1      39.134  28.071  29.462  1.00  0.00    +0.000 C 
ATOM     77  C52 UNL A   1      39.532  26.968  28.809  1.00  0.00    +0.000 C 
ATOM     78  C53 UNL A   1      40.886  27.178  28.295  1.00  0.00    +0.000 C 
ATOM     79  N6  UNL A   1      41.202  28.449  28.702  1.00  0.00    +0.000 N 
ATOM     80  C54 UNL A   1      41.337  32.415  30.705  1.00  0.00    +0.000 C 
ATOM     81  C55 UNL A   1      42.508  32.958  30.400  1.00  0.00    +0.000 C 
ATOM     82  C56 UNL A   1      44.906  26.094  26.245  1.00  0.00    +0.000 C 
ATOM     83  C57 UNL A   1      43.704  25.557  26.390  1.00  0.00    +0.000 C 
ATOM    126  H23 UNL A   1      47.934  30.436  26.628  1.00  0.00    +0.000 H 
ATOM    127  H24 UNL A   1      47.218  32.532  28.005  1.00  0.00    +0.000 H 
ATOM    128  H25 UNL A   1      44.167  29.740  28.203  1.00  0.00    +0.000 H 
ENDROOT
BRANCH   27   26
ATOM    136  H33 UNL A   1      39.575  25.603  26.005  1.00  0.00    +0.000 H 
ATOM    137  H34 UNL A   1      38.636  23.410  25.577  1.00  0.00    +0.000 H 
ATOM     84  C58 UNL A   1      39.977  24.771  26.466  1.00  0.00    +0.000 C 
ATOM     85  C59 UNL A   1      39.462  23.509  26.189  1.00  0.00    +0.000 C 
ATOM     23  C16 UNL A   1      40.067  22.376  26.740  1.00  0.00    +0.000 C 
ATOM     24  C17 UNL A   1      41.091  22.510  27.682  1.00  0.00    +0.000 C 
ATOM     25  C18 UNL A   1      41.564  23.783  28.009  1.00  0.00    +0.000 C 
ATOM     26  C19 UNL A   1      41.041  24.919  27.370  1.00  0.00    +0.000 C 
ATOM    124  H21 UNL A   1      41.494  21.675  28.131  1.00  0.00    +0.000 H 
ATOM    125  H22 UNL A   1      42.300  23.889  28.724  1.00  0.00    +0.000 H 
BRANCH   23   21
ATOM     21  C15 UNL A   1      39.644  21.023  26.323  1.00  0.00    +0.000 C 
ATOM     22  O4  UNL A   1      40.138  20.035  26.854  1.00  0.00    +0.000 O 
BRANCH   21   20
ATOM    123  H20 UNL A   1      38.730  21.570  24.621  1.00  0.00    +0.000 H 
ATOM     20  N2  UNL A   1      38.705  20.886  25.329  1.00  0.00    +0.000 N 
BRANCH   20   19
ATOM    121  H18 UNL A   1      37.931  19.235  24.356  1.00  0.00    +0.000 H 
ATOM    122  H19 UNL A   1      37.639  19.304  26.096  1.00  0.00    +0.000 H 
ATOM     19  C14 UNL A   1      37.679  19.863  25.185  1.00  0.00    +0.000 C 
BRANCH   19   18
ATOM     18  C13 UNL A   1      36.300  20.470  24.942  1.00  0.00    +0.000 C 
ATOM    119  H16 UNL A   1      36.247  20.782  23.919  1.00  0.00    +0.000 H 
ATOM    120  H17 UNL A   1      35.584  19.711  25.182  1.00  0.00    +0.000 H 
BRANCH   18   17
ATOM     17  C12 UNL A   1      35.979  21.675  25.829  1.00  0.00    +0.000 C 
ATOM    117  H14 UNL A   1      34.976  21.565  26.187  1.00  0.00    +0.000 H 
ATOM    118  H15 UNL A   1      36.711  21.675  26.609  1.00  0.00    +0.000 H 
BRANCH   17   16
ATOM    115  H12 UNL A   1      35.201  23.593  25.349  1.00  0.00    +0.000 H 
ATOM    116  H13 UNL A   1      36.980  23.494  25.513  1.00  0.00    +0.000 H 
ATOM     16  C11 UNL A   1      36.090  23.037  25.134  1.00  0.00    +0.000 C 
BRANCH   16   15
ATOM    113  H10 UNL A   1      37.092  23.589  23.333  1.00  0.00    +0.000 H 
ATOM    114  H11 UNL A   1      36.402  21.951  23.343  1.00  0.00    +0.000 H 
ATOM     15  C10 UNL A   1      36.257  22.979  23.606  1.00  0.00    +0.000 C 
BRANCH   15   14
ATOM     14  C9  UNL A   1      35.026  23.471  22.837  1.00  0.00    +0.000 C 
ATOM    111  H8  UNL A   1      35.288  23.634  21.812  1.00  0.00    +0.000 H 
ATOM    112  H9  UNL A   1      34.254  22.734  22.898  1.00  0.00    +0.000 H 
BRANCH   14   13
ATOM     13  N1  UNL A   1      34.552  24.712  23.416  1.00  0.00    +0.000 N 
ATOM    110  H7  UNL A   1      35.200  25.123  24.032  1.00  0.00    +0.000 H 
BRANCH   13   11
ATOM     11  C8  UNL A   1      33.406  25.430  23.291  1.00  0.00    +0.000 C 
ATOM     12  O3  UNL A   1      33.222  25.958  22.191  1.00  0.00    +0.000 O 
BRANCH   11   10
ATOM     10  C7  UNL A   1      32.455  25.696  24.438  1.00  0.00    +0.000 C 
BRANCH   10    9
ATOM      9  C6  UNL A   1      32.196  26.944  24.896  1.00  0.00    +0.000 C 
ATOM    109  H6  UNL A   1      32.711  27.219  25.746  1.00  0.00    +0.000 H 
BRANCH    9    8
ATOM      5  C2  UNL A   1      29.360  29.764  23.339  1.00  0.00    +0.000 C 
ATOM    102  C73 UNL A   1      30.315  27.548  23.414  1.00  0.00    +0.000 C 
ATOM      6  C3  UNL A   1      30.335  30.217  24.228  1.00  0.00    +0.000 C 
ATOM    103  C74 UNL A   1      29.361  28.437  22.909  1.00  0.00    +0.000 C 
ATOM      7  C4  UNL A   1      31.301  29.324  24.711  1.00  0.00    +0.000 C 
ATOM      8  C5  UNL A   1      31.277  27.971  24.348  1.00  0.00    +0.000 C 
ATOM    107  H4  UNL A   1      30.346  31.204  24.528  1.00  0.00    +0.000 H 
ATOM    108  H5  UNL A   1      32.040  29.668  25.343  1.00  0.00    +0.000 H 
ATOM    149  H46 UNL A   1      30.314  26.567  23.096  1.00  0.00    +0.000 H 
ATOM    150  H47 UNL A   1      28.661  28.113  22.222  1.00  0.00    +0.000 H 
BRANCH    5    2
ATOM      2  S1  UNL A   1      28.125  30.888  22.723  1.00  0.00    +0.000 S 
ATOM      3  O1  UNL A   1      27.288  31.267  23.846  1.00  0.00    +0.000 O 
ATOM      4  O2  UNL A   1      27.556  30.266  21.543  1.00  0.00    +0.000 O 
BRANCH    2    1
ATOM      1  C1  UNL A   1      29.017  32.336  22.218  1.00  0.00    +0.000 C 
ATOM    106  H3  UNL A   1      28.793  32.554  21.195  1.00  0.00    +0.000 H 
ATOM    105  H2  UNL A   1      28.730  33.164  22.832  1.00  0.00    +0.000 H 
ATOM    104  H1  UNL A   1      30.068  32.162  22.322  1.00  0.00    +0.000 H 
ENDBRANCH    2    1
ENDBRANCH    5    2
ENDBRANCH    9    8
ENDBRANCH   10    9
BRANCH   10   86
ATOM    101  C72 UNL A   1      32.530  23.241  25.037  1.00  0.00    +0.000 C 
ATOM    138  H35 UNL A   1      30.311  25.551  26.013  1.00  0.00    +0.000 H 
ATOM    139  H36 UNL A   1      29.284  23.610  27.028  1.00  0.00    +0.000 H 
ATOM    140  H37 UNL A   1      30.247  21.417  26.679  1.00  0.00    +0.000 H 
ATOM    148  H45 UNL A   1      33.445  23.152  24.565  1.00  0.00    +0.000 H 
ATOM     86  C60 UNL A   1      31.939  24.505  25.165  1.00  0.00    +0.000 C 
ATOM     87  C61 UNL A   1      30.746  24.623  25.897  1.00  0.00    +0.000 C 
ATOM     88  C62 UNL A   1      30.144  23.505  26.467  1.00  0.00    +0.000 C 
ATOM     89  C63 UNL A   1      30.707  22.248  26.276  1.00  0.00    +0.000 C 
ATOM     90  C64 UNL A   1      31.895  22.092  25.541  1.00  0.00    +0.000 C 
BRANCH   90   91
ATOM     99  C70 UNL A   1      32.808  18.994  23.561  1.00  0.00    +0.000 C 
ATOM    100  C71 UNL A   1      32.403  20.296  23.865  1.00  0.00    +0.000 C 
ATOM    141  H38 UNL A   1      32.812  20.202  27.189  1.00  0.00    +0.000 H 
ATOM    142  H39 UNL A   1      33.495  17.934  26.676  1.00  0.00    +0.000 H 
ATOM    146  H43 UNL A   1      32.812  18.664  22.584  1.00  0.00    +0.000 H 
ATOM    147  H44 UNL A   1      32.109  20.929  23.104  1.00  0.00    +0.000 H 
ATOM     91  C65 UNL A   1      32.392  20.755  25.191  1.00  0.00    +0.000 C 
ATOM     92  C66 UNL A   1      32.805  19.875  26.210  1.00  0.00    +0.000 C 
ATOM     93  C67 UNL A   1      33.204  18.573  25.919  1.00  0.00    +0.000 C 
ATOM     94  C68 UNL A   1      33.206  18.142  24.593  1.00  0.00    +0.000 C 
BRANCH   94   95
ATOM     97  O5  UNL A   1      32.588  15.630  24.745  1.00  0.00    +0.000 O 
ATOM     98  O6  UNL A   1      34.079  16.396  22.856  1.00  0.00    +0.000 O 
ATOM     95  S2  UNL A   1      33.664  16.462  24.245  1.00  0.00    +0.000 S 
BRANCH   95   96
ATOM    145  H42 UNL A   1      35.434  15.189  25.142  1.00  0.00    +0.000 H 
ATOM    144  H41 UNL A   1      35.876  16.869  24.949  1.00  0.00    +0.000 H 
ATOM    143  H40 UNL A   1      34.852  16.381  26.279  1.00  0.00    +0.000 H 
ATOM     96  C69 UNL A   1      35.098  16.199  25.254  1.00  0.00    +0.000 C 
ENDBRANCH   95   96
ENDBRANCH   94   95
ENDBRANCH   90   91
ENDBRANCH   10   86
ENDBRANCH   11   10
ENDBRANCH   13   11
ENDBRANCH   14   13
ENDBRANCH   15   14
ENDBRANCH   16   15
ENDBRANCH   17   16
ENDBRANCH   18   17
ENDBRANCH   19   18
ENDBRANCH   20   19
ENDBRANCH   21   20
ENDBRANCH   23   21
ENDBRANCH   27   26
BRANCH   31   32
ATOM     33  C25 UNL A   1      47.350  27.792  24.608  1.00  0.00    +0.000 C 
ATOM     34  F1  UNL A   1      46.332  28.247  23.861  1.00  0.00    +0.000 F 
ATOM     35  C26 UNL A   1      48.495  27.327  23.967  1.00  0.00    +0.000 C 
ATOM     36  F2  UNL A   1      48.561  27.329  22.629  1.00  0.00    +0.000 F 
ATOM     37  C27 UNL A   1      49.562  26.848  24.712  1.00  0.00    +0.000 C 
ATOM     38  F3  UNL A   1      50.667  26.407  24.094  1.00  0.00    +0.000 F 
ATOM     39  C28 UNL A   1      49.483  26.821  26.096  1.00  0.00    +0.000 C 
ATOM     40  F4  UNL A   1      50.519  26.371  26.817  1.00  0.00    +0.000 F 
ATOM     41  C29 UNL A   1      48.327  27.259  26.738  1.00  0.00    +0.000 C 
ATOM     42  F5  UNL A   1      48.275  27.206  28.078  1.00  0.00    +0.000 F 
ATOM     32  C24 UNL A   1      47.237  27.754  26.006  1.00  0.00    +0.000 C 
ENDBRANCH   31   32
BRANCH   48   49
ATOM     49  C35 UNL A   1      45.152  33.664  29.558  1.00  0.00    +0.000 C 
ATOM     50  C36 UNL A   1      44.950  34.803  28.765  1.00  0.00    +0.000 C 
ATOM     51  F6  UNL A   1      44.286  34.707  27.604  1.00  0.00    +0.000 F 
ATOM     52  C37 UNL A   1      45.458  36.040  29.150  1.00  0.00    +0.000 C 
ATOM     53  F7  UNL A   1      45.285  37.108  28.358  1.00  0.00    +0.000 F 
ATOM     54  C38 UNL A   1      46.148  36.169  30.345  1.00  0.00    +0.000 C 
ATOM     55  F8  UNL A   1      46.625  37.365  30.719  1.00  0.00    +0.000 F 
ATOM     56  C39 UNL A   1      46.351  35.058  31.150  1.00  0.00    +0.000 C 
ATOM     57  F9  UNL A   1      47.007  35.183  32.312  1.00  0.00    +0.000 F 
ATOM     58  C40 UNL A   1      45.869  33.814  30.755  1.00  0.00    +0.000 C 
ATOM     59  F10 UNL A   1      46.085  32.756  31.551  1.00  0.00    +0.000 F 
ENDBRANCH   48   49
BRANCH   63   64
ATOM     65  C45 UNL A   1      38.885  30.411  32.212  1.00  0.00    +0.000 C 
ATOM     66  F11 UNL A   1      39.869  29.763  32.854  1.00  0.00    +0.000 F 
ATOM     67  C46 UNL A   1      37.750  30.792  32.925  1.00  0.00    +0.000 C 
ATOM     68  F12 UNL A   1      37.654  30.505  34.229  1.00  0.00    +0.000 F 
ATOM     69  C47 UNL A   1      36.715  31.455  32.283  1.00  0.00    +0.000 C 
ATOM     70  F13 UNL A   1      35.627  31.828  32.969  1.00  0.00    +0.000 F 
ATOM     71  C48 UNL A   1      36.808  31.727  30.926  1.00  0.00    +0.000 C 
ATOM     72  F14 UNL A   1      35.818  32.382  30.305  1.00  0.00    +0.000 F 
ATOM     73  C49 UNL A   1      37.930  31.322  30.207  1.00  0.00    +0.000 C 
ATOM     74  F15 UNL A   1      37.989  31.589  28.894  1.00  0.00    +0.000 F 
ATOM     64  C44 UNL A   1      38.995  30.661  30.837  1.00  0.00    +0.000 C 
ENDBRANCH   63   64
TORSDOF 23
ENDMDL
MODEL 2
REMARK VINA RESULT:     -11.5     37.208     42.744
ROOT
ATOM    129  H26 UNL A   1      16.754  56.901   2.058  1.00  0.00    +0.000 H 
ATOM    130  H27 UNL A   1      15.114  56.745   3.991  1.00  0.00    +0.000 H 
ATOM    131  H28 UNL A   1      15.232  53.035   2.120  1.00  0.00    +0.000 H 
ATOM    132  H29 UNL A   1      18.831  53.374  -1.379  1.00  0.00    +0.000 H 
ATOM    133  H30 UNL A   1      18.314  50.936  -1.963  1.00  0.00    +0.000 H 
ATOM    134  H31 UNL A   1      11.733  50.428   5.612  1.00  0.00    +0.000 H 
ATOM    135  H32 UNL A   1      11.952  52.954   5.972  1.00  0.00    +0.000 H 
ATOM     27  C20 UNL A   1      13.907  54.180   4.303  1.00  0.00    +0.000 C 
ATOM     28  C21 UNL A   1      13.443  52.753   4.274  1.00  0.00    +0.000 C 
ATOM     29  N3  UNL A   1      13.823  51.775   3.492  1.00  0.00    +0.000 N 
ATOM     30  C22 UNL A   1      13.114  50.658   3.913  1.00  0.00    +0.000 C 
ATOM     31  C23 UNL A   1      13.114  49.411   3.384  1.00  0.00    +0.000 C 
ATOM     43  C30 UNL A   1      13.893  49.017   2.240  1.00  0.00    +0.000 C 
ATOM     44  C31 UNL A   1      13.909  47.797   1.587  1.00  0.00    +0.000 C 
ATOM     45  C32 UNL A   1      14.863  47.862   0.565  1.00  0.00    +0.000 C 
ATOM     46  C33 UNL A   1      15.405  49.137   0.550  1.00  0.00    +0.000 C 
ATOM     47  N4  UNL A   1      14.799  49.836   1.582  1.00  0.00    +0.000 N 
ATOM     48  C34 UNL A   1      16.410  49.675  -0.331  1.00  0.00    +0.000 C 
ATOM     60  C41 UNL A   1      16.854  50.955  -0.315  1.00  0.00    +0.000 C 
ATOM     61  N5  UNL A   1      16.472  52.000   0.514  1.00  0.00    +0.000 N 
ATOM     62  C42 UNL A   1      17.194  53.032   0.151  1.00  0.00    +0.000 C 
ATOM     63  C43 UNL A   1      17.187  54.434   0.696  1.00  0.00    +0.000 C 
ATOM     75  C50 UNL A   1      16.342  54.746   1.697  1.00  0.00    +0.000 C 
ATOM     76  C51 UNL A   1      16.236  56.053   2.338  1.00  0.00    +0.000 C 
ATOM     77  C52 UNL A   1      15.359  55.974   3.351  1.00  0.00    +0.000 C 
ATOM     78  C53 UNL A   1      14.804  54.621   3.400  1.00  0.00    +0.000 C 
ATOM     79  N6  UNL A   1      15.425  53.970   2.363  1.00  0.00    +0.000 N 
ATOM     80  C54 UNL A   1      18.138  52.749  -0.940  1.00  0.00    +0.000 C 
ATOM     81  C55 UNL A   1      17.864  51.479  -1.210  1.00  0.00    +0.000 C 
ATOM     82  C56 UNL A   1      12.318  51.066   5.050  1.00  0.00    +0.000 C 
ATOM     83  C57 UNL A   1      12.438  52.367   5.275  1.00  0.00    +0.000 C 
ATOM    126  H23 UNL A   1      13.321  46.981   1.815  1.00  0.00    +0.000 H 
ATOM    127  H24 UNL A   1      15.119  47.090  -0.071  1.00  0.00    +0.000 H 
ATOM    128  H25 UNL A   1      14.983  50.775   1.813  1.00  0.00    +0.000 H 
ENDROOT
BRANCH   27   26
ATOM    136  H33 UNL A   1      11.595  55.505   4.466  1.00  0.00    +0.000 H 
ATOM    137  H34 UNL A   1      10.810  56.982   6.220  1.00  0.00    +0.000 H 
ATOM     84  C58 UNL A   1      12.184  55.679   5.295  1.00  0.00    +0.000 C 
ATOM     85  C59 UNL A   1      11.715  56.495   6.319  1.00  0.00    +0.000 C 
ATOM     23  C16 UNL A   1      12.473  56.653   7.482  1.00  0.00    +0.000 C 
ATOM     24  C17 UNL A   1      13.761  56.118   7.564  1.00  0.00    +0.000 C 
ATOM     25  C18 UNL A   1      14.258  55.351   6.507  1.00  0.00    +0.000 C 
ATOM     26  C19 UNL A   1      13.455  55.089   5.385  1.00  0.00    +0.000 C 
ATOM    124  H21 UNL A   1      14.342  56.287   8.399  1.00  0.00    +0.000 H 
ATOM    125  H22 UNL A   1      15.218  54.977   6.551  1.00  0.00    +0.000 H 
BRANCH   23   21
ATOM     21  C15 UNL A   1      11.918  57.375   8.647  1.00  0.00    +0.000 C 
ATOM     22  O4  UNL A   1      11.807  58.596   8.616  1.00  0.00    +0.000 O 
BRANCH   21   20
ATOM    123  H20 UNL A   1      11.708  57.110  10.626  1.00  0.00    +0.000 H 
ATOM     20  N2  UNL A   1      11.542  56.667   9.762  1.00  0.00    +0.000 N 
BRANCH   20   19
ATOM    121  H18 UNL A   1      10.129  55.377  10.545  1.00  0.00    +0.000 H 
ATOM    122  H19 UNL A   1      10.574  55.094   8.860  1.00  0.00    +0.000 H 
ATOM     19  C14 UNL A   1      10.930  55.348   9.836  1.00  0.00    +0.000 C 
BRANCH   19   18
ATOM     18  C13 UNL A   1      11.931  54.278  10.267  1.00  0.00    +0.000 C 
ATOM    119  H16 UNL A   1      12.869  54.756  10.460  1.00  0.00    +0.000 H 
ATOM    120  H17 UNL A   1      11.520  53.805  11.134  1.00  0.00    +0.000 H 
BRANCH   18   17
ATOM     17  C12 UNL A   1      12.157  53.177   9.229  1.00  0.00    +0.000 C 
ATOM    117  H14 UNL A   1      11.613  52.310   9.541  1.00  0.00    +0.000 H 
ATOM    118  H15 UNL A   1      11.822  53.574   8.294  1.00  0.00    +0.000 H 
BRANCH   17   16
ATOM    115  H12 UNL A   1      14.128  53.586   8.548  1.00  0.00    +0.000 H 
ATOM    116  H13 UNL A   1      14.007  52.543   9.997  1.00  0.00    +0.000 H 
ATOM     16  C11 UNL A   1      13.622  52.772   9.025  1.00  0.00    +0.000 C 
BRANCH   16   15
ATOM    113  H10 UNL A   1      13.676  50.652   8.788  1.00  0.00    +0.000 H 
ATOM    114  H11 UNL A   1      13.150  51.561   7.354  1.00  0.00    +0.000 H 
ATOM     15  C10 UNL A   1      13.839  51.511   8.172  1.00  0.00    +0.000 C 
BRANCH   15   14
ATOM     14  C9  UNL A   1      15.245  51.415   7.570  1.00  0.00    +0.000 C 
ATOM    111  H8  UNL A   1      15.359  52.161   6.812  1.00  0.00    +0.000 H 
ATOM    112  H9  UNL A   1      15.971  51.571   8.340  1.00  0.00    +0.000 H 
BRANCH   14   13
ATOM     13  N1  UNL A   1      15.439  50.102   6.987  1.00  0.00    +0.000 N 
ATOM    110  H7  UNL A   1      15.231  50.072   6.026  1.00  0.00    +0.000 H 
BRANCH   13   11
ATOM     11  C8  UNL A   1      15.847  48.905   7.481  1.00  0.00    +0.000 C 
ATOM     12  O3  UNL A   1      16.472  48.187   6.697  1.00  0.00    +0.000 O 
BRANCH   11   10
ATOM     10  C7  UNL A   1      15.472  48.394   8.856  1.00  0.00    +0.000 C 
BRANCH   10    9
ATOM      9  C6  UNL A   1      14.657  47.328   9.040  1.00  0.00    +0.000 C 
ATOM    109  H6  UNL A   1      15.135  46.428   9.200  1.00  0.00    +0.000 H 
BRANCH    9    8
ATOM      5  C2  UNL A   1      10.371  47.259   8.831  1.00  0.00    +0.000 C 
ATOM    102  C73 UNL A   1      12.482  48.401   8.575  1.00  0.00    +0.000 C 
ATOM      6  C3  UNL A   1      11.034  46.143   9.343  1.00  0.00    +0.000 C 
ATOM    103  C74 UNL A   1      11.087  48.400   8.470  1.00  0.00    +0.000 C 
ATOM      7  C4  UNL A   1      12.430  46.163   9.465  1.00  0.00    +0.000 C 
ATOM      8  C5  UNL A   1      13.176  47.271   9.041  1.00  0.00    +0.000 C 
ATOM    107  H4  UNL A   1      10.500  45.308   9.630  1.00  0.00    +0.000 H 
ATOM    108  H5  UNL A   1      12.916  45.349   9.873  1.00  0.00    +0.000 H 
ATOM    149  H46 UNL A   1      13.011  49.245   8.307  1.00  0.00    +0.000 H 
ATOM    150  H47 UNL A   1      10.592  49.238   8.127  1.00  0.00    +0.000 H 
BRANCH    5    2
ATOM      2  S1  UNL A   1       8.599  47.243   8.666  1.00  0.00    +0.000 S 
ATOM      3  O1  UNL A   1       8.186  45.855   8.578  1.00  0.00    +0.000 O 
ATOM      4  O2  UNL A   1       8.277  48.187   7.614  1.00  0.00    +0.000 O 
BRANCH    2    1
ATOM      1  C1  UNL A   1       7.978  47.882  10.200  1.00  0.00    +0.000 C 
ATOM    106  H3  UNL A   1       7.504  47.095  10.749  1.00  0.00    +0.000 H 
ATOM    105  H2  UNL A   1       8.788  48.281  10.775  1.00  0.00    +0.000 H 
ATOM    104  H1  UNL A   1       7.266  48.656  10.002  1.00  0.00    +0.000 H 
ENDBRANCH    2    1
ENDBRANCH    5    2
ENDBRANCH    9    8
ENDBRANCH   10    9
BRANCH   10   86
ATOM    101  C72 UNL A   1      14.981  49.841  10.870  1.00  0.00    +0.000 C 
ATOM    138  H35 UNL A   1      17.958  49.038   9.564  1.00  0.00    +0.000 H 
ATOM    139  H36 UNL A   1      18.715  50.564  11.282  1.00  0.00    +0.000 H 
ATOM    140  H37 UNL A   1      17.099  51.727  12.658  1.00  0.00    +0.000 H 
ATOM    148  H45 UNL A   1      13.981  49.589  10.810  1.00  0.00    +0.000 H 
ATOM     86  C60 UNL A   1      15.902  49.223  10.014  1.00  0.00    +0.000 C 
ATOM     87  C61 UNL A   1      17.269  49.500  10.177  1.00  0.00    +0.000 C 
ATOM     88  C62 UNL A   1      17.706  50.392  11.152  1.00  0.00    +0.000 C 
ATOM     89  C63 UNL A   1      16.775  51.048  11.951  1.00  0.00    +0.000 C 
ATOM     90  C64 UNL A   1      15.399  50.802  11.809  1.00  0.00    +0.000 C 
BRANCH   90   91
ATOM     99  C70 UNL A   1      12.198  51.931  13.489  1.00  0.00    +0.000 C 
ATOM    100  C71 UNL A   1      13.151  51.114  12.877  1.00  0.00    +0.000 C 
ATOM    141  H38 UNL A   1      15.625  53.353  12.564  1.00  0.00    +0.000 H 
ATOM    142  H39 UNL A   1      13.970  54.784  13.606  1.00  0.00    +0.000 H 
ATOM    146  H43 UNL A   1      11.272  51.551  13.744  1.00  0.00    +0.000 H 
ATOM    147  H44 UNL A   1      12.925  50.125  12.682  1.00  0.00    +0.000 H 
ATOM     91  C65 UNL A   1      14.411  51.620  12.524  1.00  0.00    +0.000 C 
ATOM     92  C66 UNL A   1      14.698  52.969  12.808  1.00  0.00    +0.000 C 
ATOM     93  C67 UNL A   1      13.752  53.794  13.413  1.00  0.00    +0.000 C 
ATOM     94  C68 UNL A   1      12.506  53.266  13.753  1.00  0.00    +0.000 C 
BRANCH   94   95
ATOM     97  O5  UNL A   1      10.914  53.755  15.738  1.00  0.00    +0.000 O 
ATOM     98  O6  UNL A   1      11.807  55.700  14.397  1.00  0.00    +0.000 O 
ATOM     95  S2  UNL A   1      11.292  54.345  14.470  1.00  0.00    +0.000 S 
BRANCH   95   96
ATOM    145  H42 UNL A   1       9.495  53.244  13.414  1.00  0.00    +0.000 H 
ATOM    144  H41 UNL A   1       9.173  54.948  13.632  1.00  0.00    +0.000 H 
ATOM    143  H40 UNL A   1      10.246  54.417  12.358  1.00  0.00    +0.000 H 
ATOM     96  C69 UNL A   1       9.915  54.227  13.358  1.00  0.00    +0.000 C 
ENDBRANCH   95   96
ENDBRANCH   94   95
ENDBRANCH   90   91
ENDBRANCH   10   86
ENDBRANCH   11   10
ENDBRANCH   13   11
ENDBRANCH   14   13
ENDBRANCH   15   14
ENDBRANCH   16   15
ENDBRANCH   17   16
ENDBRANCH   18   17
ENDBRANCH   19   18
ENDBRANCH   20   19
ENDBRANCH   21   20
ENDBRANCH   23   21
ENDBRANCH   27   26
BRANCH   31   32
ATOM     33  C25 UNL A   1      12.777  47.409   4.902  1.00  0.00    +0.000 C 
ATOM     34  F1  UNL A   1      14.100  47.354   5.121  1.00  0.00    +0.000 F 
ATOM     35  C26 UNL A   1      11.957  46.465   5.513  1.00  0.00    +0.000 C 
ATOM     36  F2  UNL A   1      12.495  45.518   6.295  1.00  0.00    +0.000 F 
ATOM     37  C27 UNL A   1      10.587  46.494   5.304  1.00  0.00    +0.000 C 
ATOM     38  F3  UNL A   1       9.798  45.588   5.899  1.00  0.00    +0.000 F 
ATOM     39  C28 UNL A   1      10.034  47.457   4.474  1.00  0.00    +0.000 C 
ATOM     40  F4  UNL A   1       8.709  47.494   4.282  1.00  0.00    +0.000 F 
ATOM     41  C29 UNL A   1      10.856  48.385   3.838  1.00  0.00    +0.000 C 
ATOM     42  F5  UNL A   1      10.293  49.295   3.029  1.00  0.00    +0.000 F 
ATOM     32  C24 UNL A   1      12.244  48.380   4.040  1.00  0.00    +0.000 C 
ENDBRANCH   31   32
BRANCH   48   49
ATOM     49  C35 UNL A   1      16.996  48.755  -1.360  1.00  0.00    +0.000 C 
ATOM     50  C36 UNL A   1      16.439  48.642  -2.643  1.00  0.00    +0.000 C 
ATOM     51  F6  UNL A   1      15.318  49.308  -2.953  1.00  0.00    +0.000 F 
ATOM     52  C37 UNL A   1      17.019  47.816  -3.602  1.00  0.00    +0.000 C 
ATOM     53  F7  UNL A   1      16.450  47.692  -4.809  1.00  0.00    +0.000 F 
ATOM     54  C38 UNL A   1      18.179  47.114  -3.309  1.00  0.00    +0.000 C 
ATOM     55  F8  UNL A   1      18.742  46.330  -4.239  1.00  0.00    +0.000 F 
ATOM     56  C39 UNL A   1      18.752  47.220  -2.051  1.00  0.00    +0.000 C 
ATOM     57  F9  UNL A   1      19.880  46.553  -1.770  1.00  0.00    +0.000 F 
ATOM     58  C40 UNL A   1      18.160  48.023  -1.081  1.00  0.00    +0.000 C 
ATOM     59  F10 UNL A   1      18.734  48.102   0.129  1.00  0.00    +0.000 F 
ENDBRANCH   48   49
BRANCH   63   64
ATOM     65  C45 UNL A   1      19.294  55.797   0.775  1.00  0.00    +0.000 C 
ATOM     66  F11 UNL A   1      19.630  55.180   1.917  1.00  0.00    +0.000 F 
ATOM     67  C46 UNL A   1      20.138  56.780   0.265  1.00  0.00    +0.000 C 
ATOM     68  F12 UNL A   1      21.264  57.097   0.917  1.00  0.00    +0.000 F 
ATOM     69  C47 UNL A   1      19.809  57.439  -0.910  1.00  0.00    +0.000 C 
ATOM     70  F13 UNL A   1      20.624  58.380  -1.405  1.00  0.00    +0.000 F 
ATOM     71  C48 UNL A   1      18.629  57.125  -1.569  1.00  0.00    +0.000 C 
ATOM     72  F14 UNL A   1      18.315  57.748  -2.713  1.00  0.00    +0.000 F 
ATOM     73  C49 UNL A   1      17.771  56.162  -1.045  1.00  0.00    +0.000 C 
ATOM     74  F15 UNL A   1      16.632  55.886  -1.697  1.00  0.00    +0.000 F 
ATOM     64  C44 UNL A   1      18.088  55.474   0.136  1.00  0.00    +0.000 C 
ENDBRANCH   63   64
TORSDOF 23
ENDMDL
MODEL 3
REMARK VINA RESULT:     -10.6     37.585     42.890
ROOT
ATOM    129  H26 UNL A   1      26.961 -12.683  27.752  1.00  0.00    +0.000 H 
ATOM    130  H27 UNL A   1      28.806 -14.151  28.695  1.00  0.00    +0.000 H 
ATOM    131  H28 UNL A   1      26.542 -12.744  31.885  1.00  0.00    +0.000 H 
ATOM    132  H29 UNL A   1      22.690 -10.238  29.838  1.00  0.00    +0.000 H 
ATOM    133  H30 UNL A   1      21.882  -9.787  32.225  1.00  0.00    +0.000 H 
ATOM    134  H31 UNL A   1      29.290 -15.493  35.901  1.00  0.00    +0.000 H 
ATOM    135  H32 UNL A   1      30.331 -15.645  33.566  1.00  0.00    +0.000 H 
ATOM     27  C20 UNL A   1      28.768 -14.405  31.535  1.00  0.00    +0.000 C 
ATOM     28  C21 UNL A   1      28.516 -14.402  33.015  1.00  0.00    +0.000 C 
ATOM     29  N3  UNL A   1      27.545 -13.839  33.689  1.00  0.00    +0.000 N 
ATOM     30  C22 UNL A   1      27.761 -14.178  35.017  1.00  0.00    +0.000 C 
ATOM     31  C23 UNL A   1      27.061 -13.792  36.110  1.00  0.00    +0.000 C 
ATOM     43  C30 UNL A   1      25.915 -12.923  36.072  1.00  0.00    +0.000 C 
ATOM     44  C31 UNL A   1      25.179 -12.418  37.130  1.00  0.00    +0.000 C 
ATOM     45  C32 UNL A   1      24.122 -11.665  36.607  1.00  0.00    +0.000 C 
ATOM     46  C33 UNL A   1      24.228 -11.661  35.226  1.00  0.00    +0.000 C 
ATOM     47  N4  UNL A   1      25.333 -12.434  34.911  1.00  0.00    +0.000 N 
ATOM     48  C34 UNL A   1      23.377 -11.009  34.263  1.00  0.00    +0.000 C 
ATOM     60  C41 UNL A   1      23.575 -11.009  32.923  1.00  0.00    +0.000 C 
ATOM     61  N5  UNL A   1      24.592 -11.609  32.192  1.00  0.00    +0.000 N 
ATOM     62  C42 UNL A   1      24.341 -11.338  30.935  1.00  0.00    +0.000 C 
ATOM     63  C43 UNL A   1      25.121 -11.722  29.708  1.00  0.00    +0.000 C 
ATOM     75  C50 UNL A   1      26.249 -12.445  29.845  1.00  0.00    +0.000 C 
ATOM     76  C51 UNL A   1      27.096 -12.907  28.750  1.00  0.00    +0.000 C 
ATOM     77  C52 UNL A   1      28.080 -13.672  29.250  1.00  0.00    +0.000 C 
ATOM     78  C53 UNL A   1      27.959 -13.714  30.708  1.00  0.00    +0.000 C 
ATOM     79  N6  UNL A   1      26.861 -12.935  30.974  1.00  0.00    +0.000 N 
ATOM     80  C54 UNL A   1      23.118 -10.550  30.724  1.00  0.00    +0.000 C 
ATOM     81  C55 UNL A   1      22.710 -10.347  31.969  1.00  0.00    +0.000 C 
ATOM     82  C56 UNL A   1      28.927 -15.036  35.051  1.00  0.00    +0.000 C 
ATOM     83  C57 UNL A   1      29.468 -15.153  33.847  1.00  0.00    +0.000 C 
ATOM    126  H23 UNL A   1      25.376 -12.572  38.131  1.00  0.00    +0.000 H 
ATOM    127  H24 UNL A   1      23.388 -11.192  37.158  1.00  0.00    +0.000 H 
ATOM    128  H25 UNL A   1      25.659 -12.611  33.999  1.00  0.00    +0.000 H 
ENDROOT
BRANCH   27   26
ATOM    136  H33 UNL A   1      28.522 -16.695  30.185  1.00  0.00    +0.000 H 
ATOM    137  H34 UNL A   1      30.258 -18.085  29.223  1.00  0.00    +0.000 H 
ATOM     84  C58 UNL A   1      29.511 -16.413  30.265  1.00  0.00    +0.000 C 
ATOM     85  C59 UNL A   1      30.503 -17.191  29.678  1.00  0.00    +0.000 C 
ATOM     23  C16 UNL A   1      31.832 -16.759  29.705  1.00  0.00    +0.000 C 
ATOM     24  C17 UNL A   1      32.191 -15.628  30.442  1.00  0.00    +0.000 C 
ATOM     25  C18 UNL A   1      31.202 -14.882  31.087  1.00  0.00    +0.000 C 
ATOM     26  C19 UNL A   1      29.850 -15.244  30.965  1.00  0.00    +0.000 C 
ATOM    124  H21 UNL A   1      33.180 -15.345  30.510  1.00  0.00    +0.000 H 
ATOM    125  H22 UNL A   1      31.465 -14.062  31.655  1.00  0.00    +0.000 H 
BRANCH   23   21
ATOM     21  C15 UNL A   1      32.871 -17.481  28.942  1.00  0.00    +0.000 C 
ATOM     22  O4  UNL A   1      33.094 -18.664  29.177  1.00  0.00    +0.000 O 
BRANCH   21   20
ATOM    123  H20 UNL A   1      34.568 -16.840  28.081  1.00  0.00    +0.000 H 
ATOM     20  N2  UNL A   1      33.589 -16.813  27.980  1.00  0.00    +0.000 N 
BRANCH   20   19
ATOM    121  H18 UNL A   1      33.251 -16.652  25.947  1.00  0.00    +0.000 H 
ATOM    122  H19 UNL A   1      32.053 -15.876  26.986  1.00  0.00    +0.000 H 
ATOM     19  C14 UNL A   1      33.093 -16.069  26.831  1.00  0.00    +0.000 C 
BRANCH   19   18
ATOM     18  C13 UNL A   1      33.803 -14.728  26.669  1.00  0.00    +0.000 C 
ATOM    119  H16 UNL A   1      34.824 -14.851  26.967  1.00  0.00    +0.000 H 
ATOM    120  H17 UNL A   1      33.701 -14.448  25.642  1.00  0.00    +0.000 H 
BRANCH   18   17
ATOM     17  C12 UNL A   1      33.196 -13.593  27.497  1.00  0.00    +0.000 C 
ATOM    117  H14 UNL A   1      33.472 -13.745  28.520  1.00  0.00    +0.000 H 
ATOM    118  H15 UNL A   1      33.581 -12.683  27.085  1.00  0.00    +0.000 H 
BRANCH   17   16
ATOM    115  H12 UNL A   1      31.398 -13.274  26.412  1.00  0.00    +0.000 H 
ATOM    116  H13 UNL A   1      31.286 -14.419  27.783  1.00  0.00    +0.000 H 
ATOM     16  C11 UNL A   1      31.669 -13.485  27.426  1.00  0.00    +0.000 C 
BRANCH   16   15
ATOM    113  H10 UNL A   1      30.866 -11.531  27.724  1.00  0.00    +0.000 H 
ATOM    114  H11 UNL A   1      30.144 -12.807  28.729  1.00  0.00    +0.000 H 
ATOM     15  C10 UNL A   1      31.047 -12.400  28.320  1.00  0.00    +0.000 C 
BRANCH   15   14
ATOM     14  C9  UNL A   1      31.935 -12.000  29.503  1.00  0.00    +0.000 C 
ATOM    111  H8  UNL A   1      31.889 -12.759  30.256  1.00  0.00    +0.000 H 
ATOM    112  H9  UNL A   1      32.944 -11.888  29.166  1.00  0.00    +0.000 H 
BRANCH   14   13
ATOM     13  N1  UNL A   1      31.474 -10.743  30.058  1.00  0.00    +0.000 N 
ATOM    110  H7  UNL A   1      30.958 -10.854  30.889  1.00  0.00    +0.000 H 
BRANCH   13   11
ATOM     11  C8  UNL A   1      31.601  -9.444  29.679  1.00  0.00    +0.000 C 
ATOM     12  O3  UNL A   1      31.551  -8.614  30.590  1.00  0.00    +0.000 O 
BRANCH   11   10
ATOM     10  C7  UNL A   1      31.673  -8.996  28.235  1.00  0.00    +0.000 C 
BRANCH   10    9
ATOM      9  C6  UNL A   1      32.848  -8.787  27.595  1.00  0.00    +0.000 C 
ATOM    109  H6  UNL A   1      33.314  -7.891  27.807  1.00  0.00    +0.000 H 
BRANCH    9    8
ATOM      5  C2  UNL A   1      34.971 -11.456  24.989  1.00  0.00    +0.000 C 
ATOM    102  C73 UNL A   1      34.847 -10.102  26.984  1.00  0.00    +0.000 C 
ATOM      6  C3  UNL A   1      33.715 -10.995  24.596  1.00  0.00    +0.000 C 
ATOM    103  C74 UNL A   1      35.554 -10.993  26.169  1.00  0.00    +0.000 C 
ATOM      7  C4  UNL A   1      33.025 -10.085  25.409  1.00  0.00    +0.000 C 
ATOM      8  C5  UNL A   1      33.559  -9.663  26.633  1.00  0.00    +0.000 C 
ATOM    107  H4  UNL A   1      33.295 -11.321  23.712  1.00  0.00    +0.000 H 
ATOM    108  H5  UNL A   1      32.110  -9.721  25.100  1.00  0.00    +0.000 H 
ATOM    149  H46 UNL A   1      35.279  -9.761  27.857  1.00  0.00    +0.000 H 
ATOM    150  H47 UNL A   1      36.499 -11.306  26.440  1.00  0.00    +0.000 H 
BRANCH    5    2
ATOM      2  S1  UNL A   1      35.854 -12.615  23.968  1.00  0.00    +0.000 S 
ATOM      3  O1  UNL A   1      36.683 -13.420  24.846  1.00  0.00    +0.000 O 
ATOM      4  O2  UNL A   1      36.437 -11.848  22.885  1.00  0.00    +0.000 O 
BRANCH    2    1
ATOM      1  C1  UNL A   1      34.612 -13.685  23.290  1.00  0.00    +0.000 C 
ATOM    106  H3  UNL A   1      33.866 -13.881  24.031  1.00  0.00    +0.000 H 
ATOM    105  H2  UNL A   1      34.159 -13.214  22.443  1.00  0.00    +0.000 H 
ATOM    104  H1  UNL A   1      35.062 -14.607  22.987  1.00  0.00    +0.000 H 
ENDBRANCH    2    1
ENDBRANCH    5    2
ENDBRANCH    9    8
ENDBRANCH   10    9
BRANCH   10   86
ATOM    101  C72 UNL A   1      29.554  -9.577  26.985  1.00  0.00    +0.000 C 
ATOM    138  H35 UNL A   1      30.654  -6.555  27.920  1.00  0.00    +0.000 H 
ATOM    139  H36 UNL A   1      28.696  -5.861  26.680  1.00  0.00    +0.000 H 
ATOM    140  H37 UNL A   1      27.351  -7.511  25.529  1.00  0.00    +0.000 H 
ATOM    148  H45 UNL A   1      29.741 -10.582  27.131  1.00  0.00    +0.000 H 
ATOM     86  C60 UNL A   1      30.386  -8.625  27.589  1.00  0.00    +0.000 C 
ATOM     87  C61 UNL A   1      30.059  -7.265  27.466  1.00  0.00    +0.000 C 
ATOM     88  C62 UNL A   1      28.943  -6.861  26.737  1.00  0.00    +0.000 C 
ATOM     89  C63 UNL A   1      28.164  -7.814  26.088  1.00  0.00    +0.000 C 
ATOM     90  C64 UNL A   1      28.468  -9.182  26.183  1.00  0.00    +0.000 C 
BRANCH   90   91
ATOM     99  C70 UNL A   1      27.008 -12.445  24.929  1.00  0.00    +0.000 C 
ATOM    100  C71 UNL A   1      27.622 -11.506  25.762  1.00  0.00    +0.000 C 
ATOM    141  H38 UNL A   1      27.335  -8.808  23.794  1.00  0.00    +0.000 H 
ATOM    142  H39 UNL A   1      26.288 -10.435  22.334  1.00  0.00    +0.000 H 
ATOM    146  H43 UNL A   1      26.914 -13.427  25.232  1.00  0.00    +0.000 H 
ATOM    147  H44 UNL A   1      27.980 -11.799  26.685  1.00  0.00    +0.000 H 
ATOM     91  C65 UNL A   1      27.756 -10.168  25.359  1.00  0.00    +0.000 C 
ATOM     92  C66 UNL A   1      27.252  -9.791  24.099  1.00  0.00    +0.000 C 
ATOM     93  C67 UNL A   1      26.644 -10.721  23.259  1.00  0.00    +0.000 C 
ATOM     94  C68 UNL A   1      26.523 -12.044  23.683  1.00  0.00    +0.000 C 
BRANCH   94   95
ATOM     97  O5  UNL A   1      26.434 -13.035  21.291  1.00  0.00    +0.000 O 
ATOM     98  O6  UNL A   1      25.820 -14.521  23.238  1.00  0.00    +0.000 O 
ATOM     95  S2  UNL A   1      25.798 -13.229  22.577  1.00  0.00    +0.000 S 
BRANCH   95   96
ATOM    145  H42 UNL A   1      24.068 -11.649  22.322  1.00  0.00    +0.000 H 
ATOM    144  H41 UNL A   1      23.645 -13.192  21.619  1.00  0.00    +0.000 H 
ATOM    143  H40 UNL A   1      23.586 -12.975  23.352  1.00  0.00    +0.000 H 
ATOM     96  C69 UNL A   1      24.106 -12.710  22.456  1.00  0.00    +0.000 C 
ENDBRANCH   95   96
ENDBRANCH   94   95
ENDBRANCH   90   91
ENDBRANCH   10   86
ENDBRANCH   11   10
ENDBRANCH   13   11
ENDBRANCH   14   13
ENDBRANCH   15   14
ENDBRANCH   16   15
ENDBRANCH   17   16
ENDBRANCH   18   17
ENDBRANCH   19   18
ENDBRANCH   20   19
ENDBRANCH   21   20
ENDBRANCH   23   21
ENDBRANCH   27   26
BRANCH   31   32
ATOM     33  C25 UNL A   1      28.588 -13.723  38.133  1.00  0.00    +0.000 C 
ATOM     34  F1  UNL A   1      29.267 -12.704  37.583  1.00  0.00    +0.000 F 
ATOM     35  C26 UNL A   1      28.992 -14.204  39.374  1.00  0.00    +0.000 C 
ATOM     36  F2  UNL A   1      30.049 -13.659  39.992  1.00  0.00    +0.000 F 
ATOM     37  C27 UNL A   1      28.311 -15.257  39.967  1.00  0.00    +0.000 C 
ATOM     38  F3  UNL A   1      28.697 -15.715  41.167  1.00  0.00    +0.000 F 
ATOM     39  C28 UNL A   1      27.234 -15.838  39.315  1.00  0.00    +0.000 C 
ATOM     40  F4  UNL A   1      26.568 -16.846  39.893  1.00  0.00    +0.000 F 
ATOM     41  C29 UNL A   1      26.846 -15.377  38.060  1.00  0.00    +0.000 C 
ATOM     42  F5  UNL A   1      25.810 -15.971  37.448  1.00  0.00    +0.000 F 
ATOM     32  C24 UNL A   1      27.516 -14.309  37.443  1.00  0.00    +0.000 C 
ENDBRANCH   31   32
BRANCH   48   49
ATOM     49  C35 UNL A   1      22.189 -10.254  34.783  1.00  0.00    +0.000 C 
ATOM     50  C36 UNL A   1      20.913 -10.836  34.823  1.00  0.00    +0.000 C 
ATOM     51  F6  UNL A   1      20.717 -12.066  34.327  1.00  0.00    +0.000 F 
ATOM     52  C37 UNL A   1      19.827 -10.140  35.347  1.00  0.00    +0.000 C 
ATOM     53  F7  UNL A   1      18.610 -10.700  35.342  1.00  0.00    +0.000 F 
ATOM     54  C38 UNL A   1      20.001  -8.866  35.867  1.00  0.00    +0.000 C 
ATOM     55  F8  UNL A   1      18.956  -8.204  36.382  1.00  0.00    +0.000 F 
ATOM     56  C39 UNL A   1      21.256  -8.276  35.846  1.00  0.00    +0.000 C 
ATOM     57  F9  UNL A   1      21.428  -7.050  36.360  1.00  0.00    +0.000 F 
ATOM     58  C40 UNL A   1      22.338  -8.958  35.298  1.00  0.00    +0.000 C 
ATOM     59  F10 UNL A   1      23.539  -8.360  35.287  1.00  0.00    +0.000 F 
ENDBRANCH   48   49
BRANCH   63   64
ATOM     65  C45 UNL A   1      23.877 -12.155  27.571  1.00  0.00    +0.000 C 
ATOM     66  F11 UNL A   1      23.540 -13.368  28.032  1.00  0.00    +0.000 F 
ATOM     67  C46 UNL A   1      23.460 -11.777  26.296  1.00  0.00    +0.000 C 
ATOM     68  F12 UNL A   1      22.738 -12.625  25.552  1.00  0.00    +0.000 F 
ATOM     69  C47 UNL A   1      23.802 -10.531  25.792  1.00  0.00    +0.000 C 
ATOM     70  F13 UNL A   1      23.395 -10.165  24.570  1.00  0.00    +0.000 F 
ATOM     71  C48 UNL A   1      24.572  -9.667  26.557  1.00  0.00    +0.000 C 
ATOM     72  F14 UNL A   1      24.891  -8.456  26.081  1.00  0.00    +0.000 F 
ATOM     73  C49 UNL A   1      25.013 -10.054  27.820  1.00  0.00    +0.000 C 
ATOM     74  F15 UNL A   1      25.764  -9.202  28.533  1.00  0.00    +0.000 F 
ATOM     64  C44 UNL A   1      24.669 -11.304  28.355  1.00  0.00    +0.000 C 
ENDBRANCH   63   64
TORSDOF 23
ENDMDL
MODEL 4
REMARK VINA RESULT:     -10.6     37.523     42.360
ROOT
ATOM    129  H26 UNL A   1      11.992  50.241   6.390  1.00  0.00    +0.000 H 
ATOM    130  H27 UNL A   1      12.368  52.711   6.841  1.00  0.00    +0.000 H 
ATOM    131  H28 UNL A   1      14.698  51.647   3.567  1.00  0.00    +0.000 H 
ATOM    132  H29 UNL A   1      13.508  46.870   2.528  1.00  0.00    +0.000 H 
ATOM    133  H30 UNL A   1      15.180  47.009   0.594  1.00  0.00    +0.000 H 
ATOM    134  H31 UNL A   1      16.730  56.747   2.523  1.00  0.00    +0.000 H 
ATOM    135  H32 UNL A   1      15.363  56.538   4.678  1.00  0.00    +0.000 H 
ATOM     27  C20 UNL A   1      14.181  53.972   5.037  1.00  0.00    +0.000 C 
ATOM     28  C21 UNL A   1      15.131  54.400   3.955  1.00  0.00    +0.000 C 
ATOM     29  N3  UNL A   1      15.619  53.706   2.959  1.00  0.00    +0.000 N 
ATOM     30  C22 UNL A   1      16.408  54.588   2.236  1.00  0.00    +0.000 C 
ATOM     31  C23 UNL A   1      17.173  54.335   1.146  1.00  0.00    +0.000 C 
ATOM     43  C30 UNL A   1      17.295  53.044   0.525  1.00  0.00    +0.000 C 
ATOM     44  C31 UNL A   1      18.097  52.671  -0.540  1.00  0.00    +0.000 C 
ATOM     45  C32 UNL A   1      17.839  51.327  -0.831  1.00  0.00    +0.000 C 
ATOM     46  C33 UNL A   1      16.913  50.849   0.082  1.00  0.00    +0.000 C 
ATOM     47  N4  UNL A   1      16.590  51.913   0.909  1.00  0.00    +0.000 N 
ATOM     48  C34 UNL A   1      16.355  49.525   0.185  1.00  0.00    +0.000 C 
ATOM     60  C41 UNL A   1      15.486  49.119   1.142  1.00  0.00    +0.000 C 
ATOM     61  N5  UNL A   1      14.951  49.844   2.198  1.00  0.00    +0.000 N 
ATOM     62  C42 UNL A   1      14.155  49.021   2.835  1.00  0.00    +0.000 C 
ATOM     63  C43 UNL A   1      13.326  49.264   4.066  1.00  0.00    +0.000 C 
ATOM     75  C50 UNL A   1      13.358  50.477   4.651  1.00  0.00    +0.000 C 
ATOM     76  C51 UNL A   1      12.596  50.866   5.833  1.00  0.00    +0.000 C 
ATOM     77  C52 UNL A   1      12.806  52.169   6.080  1.00  0.00    +0.000 C 
ATOM     78  C53 UNL A   1      13.757  52.695   5.100  1.00  0.00    +0.000 C 
ATOM     79  N6  UNL A   1      14.051  51.613   4.309  1.00  0.00    +0.000 N 
ATOM     80  C54 UNL A   1      14.080  47.679   2.239  1.00  0.00    +0.000 C 
ATOM     81  C55 UNL A   1      14.937  47.783   1.232  1.00  0.00    +0.000 C 
ATOM     82  C56 UNL A   1      16.298  55.880   2.878  1.00  0.00    +0.000 C 
ATOM     83  C57 UNL A   1      15.569  55.804   3.982  1.00  0.00    +0.000 C 
ATOM    126  H23 UNL A   1      18.769  53.279  -1.033  1.00  0.00    +0.000 H 
ATOM    127  H24 UNL A   1      18.267  50.783  -1.597  1.00  0.00    +0.000 H 
ATOM    128  H25 UNL A   1      15.954  51.872   1.660  1.00  0.00    +0.000 H 
ENDROOT
BRANCH   27   26
ATOM    136  H33 UNL A   1      15.364  55.005   7.196  1.00  0.00    +0.000 H 
ATOM    137  H34 UNL A   1      14.508  56.650   8.756  1.00  0.00    +0.000 H 
ATOM     84  C58 UNL A   1      14.424  55.408   7.056  1.00  0.00    +0.000 C 
ATOM     85  C59 UNL A   1      13.951  56.381   7.930  1.00  0.00    +0.000 C 
ATOM     23  C16 UNL A   1      12.719  56.993   7.684  1.00  0.00    +0.000 C 
ATOM     24  C17 UNL A   1      11.894  56.534   6.654  1.00  0.00    +0.000 C 
ATOM     25  C18 UNL A   1      12.344  55.511   5.816  1.00  0.00    +0.000 C 
ATOM     26  C19 UNL A   1      13.630  54.972   5.984  1.00  0.00    +0.000 C 
ATOM    124  H21 UNL A   1      10.961  56.947   6.514  1.00  0.00    +0.000 H 
ATOM    125  H22 UNL A   1      11.728  55.149   5.072  1.00  0.00    +0.000 H 
BRANCH   23   21
ATOM     21  C15 UNL A   1      12.279  58.145   8.500  1.00  0.00    +0.000 C 
ATOM     22  O4  UNL A   1      12.959  59.164   8.540  1.00  0.00    +0.000 O 
BRANCH   21   20
ATOM    123  H20 UNL A   1      10.289  58.292   8.732  1.00  0.00    +0.000 H 
ATOM     20  N2  UNL A   1      11.112  58.055   9.220  1.00  0.00    +0.000 N 
BRANCH   20   19
ATOM    121  H18 UNL A   1      11.860  57.768  11.125  1.00  0.00    +0.000 H 
ATOM    122  H19 UNL A   1      10.171  58.275  11.034  1.00  0.00    +0.000 H 
ATOM     19  C14 UNL A   1      10.930  57.654  10.607  1.00  0.00    +0.000 C 
BRANCH   19   18
ATOM     18  C13 UNL A   1      10.474  56.202  10.727  1.00  0.00    +0.000 C 
ATOM    119  H16 UNL A   1       9.952  56.090  11.655  1.00  0.00    +0.000 H 
ATOM    120  H17 UNL A   1       9.856  56.003   9.876  1.00  0.00    +0.000 H 
BRANCH   18   17
ATOM     17  C12 UNL A   1      11.614  55.181  10.692  1.00  0.00    +0.000 C 
ATOM    117  H14 UNL A   1      12.522  55.706  10.475  1.00  0.00    +0.000 H 
ATOM    118  H15 UNL A   1      11.618  54.705  11.650  1.00  0.00    +0.000 H 
BRANCH   17   16
ATOM    115  H12 UNL A   1      10.572  53.504   9.907  1.00  0.00    +0.000 H 
ATOM    116  H13 UNL A   1      11.388  54.546   8.703  1.00  0.00    +0.000 H 
ATOM     16  C11 UNL A   1      11.450  54.064   9.656  1.00  0.00    +0.000 C 
BRANCH   16   15
ATOM    113  H10 UNL A   1      12.366  52.183  10.078  1.00  0.00    +0.000 H 
ATOM    114  H11 UNL A   1      12.815  52.912   8.520  1.00  0.00    +0.000 H 
ATOM     15  C10 UNL A   1      12.629  53.081   9.561  1.00  0.00    +0.000 C 
BRANCH   15   14
ATOM     14  C9  UNL A   1      13.928  53.625  10.166  1.00  0.00    +0.000 C 
ATOM    111  H8  UNL A   1      14.048  54.651   9.887  1.00  0.00    +0.000 H 
ATOM    112  H9  UNL A   1      13.882  53.545  11.232  1.00  0.00    +0.000 H 
BRANCH   14   13
ATOM     13  N1  UNL A   1      15.055  52.858   9.677  1.00  0.00    +0.000 N 
ATOM    110  H7  UNL A   1      15.467  53.247   8.872  1.00  0.00    +0.000 H 
BRANCH   13   11
ATOM     11  C8  UNL A   1      15.667  51.717  10.088  1.00  0.00    +0.000 C 
ATOM     12  O3  UNL A   1      16.788  51.510   9.617  1.00  0.00    +0.000 O 
BRANCH   11   10
ATOM     10  C7  UNL A   1      15.001  50.679  10.966  1.00  0.00    +0.000 C 
BRANCH   10    9
ATOM      9  C6  UNL A   1      14.971  50.778  12.317  1.00  0.00    +0.000 C 
ATOM    109  H6  UNL A   1      15.842  50.509  12.799  1.00  0.00    +0.000 H 
BRANCH    9    8
ATOM      5  C2  UNL A   1      11.875  51.945  15.050  1.00  0.00    +0.000 C 
ATOM    102  C73 UNL A   1      13.348  50.279  14.109  1.00  0.00    +0.000 C 
ATOM      6  C3  UNL A   1      12.338  52.880  14.124  1.00  0.00    +0.000 C 
ATOM    103  C74 UNL A   1      12.357  50.636  15.030  1.00  0.00    +0.000 C 
ATOM      7  C4  UNL A   1      13.314  52.507  13.191  1.00  0.00    +0.000 C 
ATOM      8  C5  UNL A   1      13.865  51.218  13.200  1.00  0.00    +0.000 C 
ATOM    107  H4  UNL A   1      11.964  53.842  14.127  1.00  0.00    +0.000 H 
ATOM    108  H5  UNL A   1      13.632  53.190  12.487  1.00  0.00    +0.000 H 
ATOM    149  H46 UNL A   1      13.704  49.311  14.096  1.00  0.00    +0.000 H 
ATOM    150  H47 UNL A   1      11.986  49.935  15.691  1.00  0.00    +0.000 H 
BRANCH    5    2
ATOM      2  S1  UNL A   1      10.640  52.409  16.244  1.00  0.00    +0.000 S 
ATOM      3  O1  UNL A   1       9.466  51.595  15.991  1.00  0.00    +0.000 O 
ATOM      4  O2  UNL A   1      10.565  53.857  16.215  1.00  0.00    +0.000 O 
BRANCH    2    1
ATOM      1  C1  UNL A   1      11.296  51.915  17.816  1.00  0.00    +0.000 C 
ATOM    106  H3  UNL A   1      10.729  51.091  18.197  1.00  0.00    +0.000 H 
ATOM    105  H2  UNL A   1      12.318  51.621  17.700  1.00  0.00    +0.000 H 
ATOM    104  H1  UNL A   1      11.236  52.734  18.502  1.00  0.00    +0.000 H 
ENDBRANCH    2    1
ENDBRANCH    5    2
ENDBRANCH    9    8
ENDBRANCH   10    9
BRANCH   10   86
ATOM    101  C72 UNL A   1      13.218  49.328   9.789  1.00  0.00    +0.000 C 
ATOM    138  H35 UNL A   1      16.324  48.394  10.621  1.00  0.00    +0.000 H 
ATOM    139  H36 UNL A   1      15.532  46.281   9.748  1.00  0.00    +0.000 H 
ATOM    140  H37 UNL A   1      13.236  46.065   9.015  1.00  0.00    +0.000 H 
ATOM    148  H45 UNL A   1      12.619  50.167   9.728  1.00  0.00    +0.000 H 
ATOM     86  C60 UNL A   1      14.521  49.444  10.290  1.00  0.00    +0.000 C 
ATOM     87  C61 UNL A   1      15.357  48.316  10.270  1.00  0.00    +0.000 C 
ATOM     88  C62 UNL A   1      14.898  47.095   9.786  1.00  0.00    +0.000 C 
ATOM     89  C63 UNL A   1      13.582  46.978   9.352  1.00  0.00    +0.000 C 
ATOM     90  C64 UNL A   1      12.715  48.083   9.367  1.00  0.00    +0.000 C 
BRANCH   90   91
ATOM     99  C70 UNL A   1       9.230  46.615   9.146  1.00  0.00    +0.000 C 
ATOM    100  C71 UNL A   1      10.572  46.786   9.496  1.00  0.00    +0.000 C 
ATOM    141  H38 UNL A   1      11.123  49.732   7.998  1.00  0.00    +0.000 H 
ATOM    142  H39 UNL A   1       8.802  49.434   7.367  1.00  0.00    +0.000 H 
ATOM    146  H43 UNL A   1       8.714  45.777   9.456  1.00  0.00    +0.000 H 
ATOM    147  H44 UNL A   1      11.044  46.069  10.070  1.00  0.00    +0.000 H 
ATOM     91  C65 UNL A   1      11.284  47.920   9.078  1.00  0.00    +0.000 C 
ATOM     92  C66 UNL A   1      10.615  48.888   8.304  1.00  0.00    +0.000 C 
ATOM     93  C67 UNL A   1       9.279  48.723   7.944  1.00  0.00    +0.000 C 
ATOM     94  C68 UNL A   1       8.594  47.586   8.372  1.00  0.00    +0.000 C 
BRANCH   94   95
ATOM     97  O5  UNL A   1       6.091  48.114   8.788  1.00  0.00    +0.000 O 
ATOM     98  O6  UNL A   1       6.846  47.619   6.429  1.00  0.00    +0.000 O 
ATOM     95  S2  UNL A   1       6.909  47.364   7.857  1.00  0.00    +0.000 S 
BRANCH   95   96
ATOM    145  H42 UNL A   1       7.500  45.082   7.869  1.00  0.00    +0.000 H 
ATOM    144  H41 UNL A   1       6.361  45.463   9.139  1.00  0.00    +0.000 H 
ATOM    143  H40 UNL A   1       5.811  45.311   7.486  1.00  0.00    +0.000 H 
ATOM     96  C69 UNL A   1       6.616  45.633   8.113  1.00  0.00    +0.000 C 
ENDBRANCH   95   96
ENDBRANCH   94   95
ENDBRANCH   90   91
ENDBRANCH   10   86
ENDBRANCH   11   10
ENDBRANCH   13   11
ENDBRANCH   14   13
ENDBRANCH   15   14
ENDBRANCH   16   15
ENDBRANCH   17   16
ENDBRANCH   18   17
ENDBRANCH   19   18
ENDBRANCH   20   19
ENDBRANCH   21   20
ENDBRANCH   23   21
ENDBRANCH   27   26
BRANCH   31   32
ATOM     33  C25 UNL A   1      17.441  56.214  -0.535  1.00  0.00    +0.000 C 
ATOM     34  F1  UNL A   1      16.278  55.866  -1.107  1.00  0.00    +0.000 F 
ATOM     35  C26 UNL A   1      18.155  57.284  -1.067  1.00  0.00    +0.000 C 
ATOM     36  F2  UNL A   1      17.682  57.937  -2.138  1.00  0.00    +0.000 F 
ATOM     37  C27 UNL A   1      19.361  57.666  -0.499  1.00  0.00    +0.000 C 
ATOM     38  F3  UNL A   1      20.044  58.701  -1.008  1.00  0.00    +0.000 F 
ATOM     39  C28 UNL A   1      19.862  56.973   0.592  1.00  0.00    +0.000 C 
ATOM     40  F4  UNL A   1      21.020  57.350   1.149  1.00  0.00    +0.000 F 
ATOM     41  C29 UNL A   1      19.163  55.884   1.108  1.00  0.00    +0.000 C 
ATOM     42  F5  UNL A   1      19.682  55.224   2.155  1.00  0.00    +0.000 F 
ATOM     32  C24 UNL A   1      17.938  55.483   0.555  1.00  0.00    +0.000 C 
ENDBRANCH   31   32
BRANCH   48   49
ATOM     49  C35 UNL A   1      16.781  48.510  -0.833  1.00  0.00    +0.000 C 
ATOM     50  C36 UNL A   1      15.993  48.228  -1.959  1.00  0.00    +0.000 C 
ATOM     51  F6  UNL A   1      14.798  48.816  -2.111  1.00  0.00    +0.000 F 
ATOM     52  C37 UNL A   1      16.420  47.314  -2.919  1.00  0.00    +0.000 C 
ATOM     53  F7  UNL A   1      15.635  47.031  -3.968  1.00  0.00    +0.000 F 
ATOM     54  C38 UNL A   1      17.651  46.689  -2.787  1.00  0.00    +0.000 C 
ATOM     55  F8  UNL A   1      18.066  45.820  -3.719  1.00  0.00    +0.000 F 
ATOM     56  C39 UNL A   1      18.451  46.961  -1.687  1.00  0.00    +0.000 C 
ATOM     57  F9  UNL A   1      19.647  46.369  -1.565  1.00  0.00    +0.000 F 
ATOM     58  C40 UNL A   1      18.015  47.853  -0.712  1.00  0.00    +0.000 C 
ATOM     59  F10 UNL A   1      18.807  48.093   0.344  1.00  0.00    +0.000 F 
ENDBRANCH   48   49
BRANCH   63   64
ATOM     65  C45 UNL A   1      11.141  48.046   4.276  1.00  0.00    +0.000 C 
ATOM     66  F11 UNL A   1      10.595  48.910   3.407  1.00  0.00    +0.000 F 
ATOM     67  C46 UNL A   1      10.343  47.045   4.825  1.00  0.00    +0.000 C 
ATOM     68  F12 UNL A   1       9.050  46.961   4.484  1.00  0.00    +0.000 F 
ATOM     69  C47 UNL A   1      10.881  46.144   5.732  1.00  0.00    +0.000 C 
ATOM     70  F13 UNL A   1      10.116  45.177   6.254  1.00  0.00    +0.000 F 
ATOM     71  C48 UNL A   1      12.214  46.251   6.101  1.00  0.00    +0.000 C 
ATOM     72  F14 UNL A   1      12.742  45.374   6.964  1.00  0.00    +0.000 F 
ATOM     73  C49 UNL A   1      13.006  47.269   5.574  1.00  0.00    +0.000 C 
ATOM     74  F15 UNL A   1      14.289  47.355   5.956  1.00  0.00    +0.000 F 
ATOM     64  C44 UNL A   1      12.487  48.184   4.646  1.00  0.00    +0.000 C 
ENDBRANCH   63   64
TORSDOF 23
ENDMDL
MODEL 5
REMARK VINA RESULT:     -10.5     37.193     42.525
ROOT
ATOM    129  H26 UNL A   1      15.891  47.253   1.527  1.00  0.00    +0.000 H 
ATOM    130  H27 UNL A   1      14.917  47.423   3.867  1.00  0.00    +0.000 H 
ATOM    131  H28 UNL A   1      15.807  51.273   2.575  1.00  0.00    +0.000 H 
ATOM    132  H29 UNL A   1      17.295  50.809  -2.208  1.00  0.00    +0.000 H 
ATOM    133  H30 UNL A   1      17.585  53.353  -2.230  1.00  0.00    +0.000 H 
ATOM    134  H31 UNL A   1      13.858  53.943   7.081  1.00  0.00    +0.000 H 
ATOM    135  H32 UNL A   1      13.914  51.389   7.266  1.00  0.00    +0.000 H 
ATOM     27  C20 UNL A   1      14.713  50.088   4.863  1.00  0.00    +0.000 C 
ATOM     28  C21 UNL A   1      14.684  51.563   5.139  1.00  0.00    +0.000 C 
ATOM     29  N3  UNL A   1      15.013  52.559   4.356  1.00  0.00    +0.000 N 
ATOM     30  C22 UNL A   1      14.758  53.712   5.085  1.00  0.00    +0.000 C 
ATOM     31  C23 UNL A   1      14.988  54.999   4.734  1.00  0.00    +0.000 C 
ATOM     43  C30 UNL A   1      15.561  55.406   3.478  1.00  0.00    +0.000 C 
ATOM     44  C31 UNL A   1      15.897  56.680   3.055  1.00  0.00    +0.000 C 
ATOM     45  C32 UNL A   1      16.369  56.593   1.741  1.00  0.00    +0.000 C 
ATOM     46  C33 UNL A   1      16.374  55.260   1.362  1.00  0.00    +0.000 C 
ATOM     47  N4  UNL A   1      15.877  54.542   2.439  1.00  0.00    +0.000 N 
ATOM     48  C34 UNL A   1      16.789  54.684   0.109  1.00  0.00    +0.000 C 
ATOM     60  C41 UNL A   1      16.811  53.359  -0.169  1.00  0.00    +0.000 C 
ATOM     61  N5  UNL A   1      16.455  52.291   0.644  1.00  0.00    +0.000 N 
ATOM     62  C42 UNL A   1      16.636  51.212  -0.077  1.00  0.00    +0.000 C 
ATOM     63  C43 UNL A   1      16.425  49.772   0.302  1.00  0.00    +0.000 C 
ATOM     75  C50 UNL A   1      15.991  49.474   1.542  1.00  0.00    +0.000 C 
ATOM     76  C51 UNL A   1      15.723  48.131   2.044  1.00  0.00    +0.000 C 
ATOM     77  C52 UNL A   1      15.222  48.220   3.286  1.00  0.00    +0.000 C 
ATOM     78  C53 UNL A   1      15.178  49.628   3.685  1.00  0.00    +0.000 C 
ATOM     79  N6  UNL A   1      15.681  50.297   2.597  1.00  0.00    +0.000 N 
ATOM     80  C54 UNL A   1      17.109  51.476  -1.443  1.00  0.00    +0.000 C 
ATOM     81  C55 UNL A   1      17.233  52.797  -1.435  1.00  0.00    +0.000 C 
ATOM     82  C56 UNL A   1      14.202  53.296   6.355  1.00  0.00    +0.000 C 
ATOM     83  C57 UNL A   1      14.193  51.975   6.463  1.00  0.00    +0.000 C 
ATOM    126  H23 UNL A   1      15.812  57.544   3.612  1.00  0.00    +0.000 H 
ATOM    127  H24 UNL A   1      16.665  57.388   1.152  1.00  0.00    +0.000 H 
ATOM    128  H25 UNL A   1      15.767  53.565   2.463  1.00  0.00    +0.000 H 
ENDROOT
BRANCH   27   26
ATOM    136  H33 UNL A   1      12.137  49.627   5.389  1.00  0.00    +0.000 H 
ATOM    137  H34 UNL A   1      11.164  48.068   6.969  1.00  0.00    +0.000 H 
ATOM     84  C58 UNL A   1      12.748  49.022   5.959  1.00  0.00    +0.000 C 
ATOM     85  C59 UNL A   1      12.187  48.100   6.837  1.00  0.00    +0.000 C 
ATOM     23  C16 UNL A   1      13.014  47.217   7.537  1.00  0.00    +0.000 C 
ATOM     24  C17 UNL A   1      14.404  47.351   7.475  1.00  0.00    +0.000 C 
ATOM     25  C18 UNL A   1      14.966  48.321   6.642  1.00  0.00    +0.000 C 
ATOM     26  C19 UNL A   1      14.143  49.133   5.845  1.00  0.00    +0.000 C 
ATOM    124  H21 UNL A   1      15.010  46.737   8.039  1.00  0.00    +0.000 H 
ATOM    125  H22 UNL A   1      15.990  48.442   6.614  1.00  0.00    +0.000 H 
BRANCH   23   21
ATOM     21  C15 UNL A   1      12.431  46.122   8.339  1.00  0.00    +0.000 C 
ATOM     22  O4  UNL A   1      11.547  45.417   7.865  1.00  0.00    +0.000 O 
BRANCH   21   20
ATOM    123  H20 UNL A   1      13.548  45.195   9.728  1.00  0.00    +0.000 H 
ATOM     20  N2  UNL A   1      12.880  45.912   9.621  1.00  0.00    +0.000 N 
BRANCH   20   19
ATOM    121  H18 UNL A   1      12.002  45.920  11.492  1.00  0.00    +0.000 H 
ATOM    122  H19 UNL A   1      13.390  46.993  11.293  1.00  0.00    +0.000 H 
ATOM     19  C14 UNL A   1      12.500  46.609  10.841  1.00  0.00    +0.000 C 
BRANCH   19   18
ATOM     18  C13 UNL A   1      11.567  47.783  10.560  1.00  0.00    +0.000 C 
ATOM    119  H16 UNL A   1      11.162  47.661   9.577  1.00  0.00    +0.000 H 
ATOM    120  H17 UNL A   1      10.817  47.769  11.323  1.00  0.00    +0.000 H 
BRANCH   18   17
ATOM     17  C12 UNL A   1      12.244  49.154  10.634  1.00  0.00    +0.000 C 
ATOM    117  H14 UNL A   1      11.982  49.701   9.752  1.00  0.00    +0.000 H 
ATOM    118  H15 UNL A   1      11.895  49.611  11.536  1.00  0.00    +0.000 H 
BRANCH   17   16
ATOM    115  H12 UNL A   1      14.046  49.351  11.741  1.00  0.00    +0.000 H 
ATOM    116  H13 UNL A   1      14.068  48.131  10.432  1.00  0.00    +0.000 H 
ATOM     16  C11 UNL A   1      13.773  49.115  10.734  1.00  0.00    +0.000 C 
BRANCH   16   15
ATOM    113  H10 UNL A   1      14.818  49.552   8.925  1.00  0.00    +0.000 H 
ATOM    114  H11 UNL A   1      13.837  50.884   9.573  1.00  0.00    +0.000 H 
ATOM     15  C10 UNL A   1      14.514  50.087   9.800  1.00  0.00    +0.000 C 
BRANCH   15   14
ATOM     14  C9  UNL A   1      15.756  50.720  10.437  1.00  0.00    +0.000 C 
ATOM    111  H8  UNL A   1      16.096  50.103  11.243  1.00  0.00    +0.000 H 
ATOM    112  H9  UNL A   1      16.527  50.805   9.701  1.00  0.00    +0.000 H 
BRANCH   14   13
ATOM     13  N1  UNL A   1      15.429  52.038  10.943  1.00  0.00    +0.000 N 
ATOM    110  H7  UNL A   1      15.671  52.761  10.321  1.00  0.00    +0.000 H 
BRANCH   13   11
ATOM     11  C8  UNL A   1      14.859  52.490  12.090  1.00  0.00    +0.000 C 
ATOM     12  O3  UNL A   1      15.615  52.592  13.060  1.00  0.00    +0.000 O 
BRANCH   11   10
ATOM     10  C7  UNL A   1      13.375  52.744  12.245  1.00  0.00    +0.000 C 
BRANCH   10    9
ATOM      9  C6  UNL A   1      12.681  52.363  13.343  1.00  0.00    +0.000 C 
ATOM    109  H6  UNL A   1      12.508  53.106  14.037  1.00  0.00    +0.000 H 
BRANCH    9    8
ATOM      5  C2  UNL A   1      11.228  48.506  14.543  1.00  0.00    +0.000 C 
ATOM    102  C73 UNL A   1      13.033  50.071  14.194  1.00  0.00    +0.000 C 
ATOM      6  C3  UNL A   1      10.326  49.423  14.001  1.00  0.00    +0.000 C 
ATOM    103  C74 UNL A   1      12.586  48.815  14.618  1.00  0.00    +0.000 C 
ATOM      7  C4  UNL A   1      10.787  50.670  13.558  1.00  0.00    +0.000 C 
ATOM      8  C5  UNL A   1      12.135  51.029  13.690  1.00  0.00    +0.000 C 
ATOM    107  H4  UNL A   1       9.325  49.184  13.926  1.00  0.00    +0.000 H 
ATOM    108  H5  UNL A   1      10.125  51.333  13.128  1.00  0.00    +0.000 H 
ATOM    149  H46 UNL A   1      14.038  50.299  14.250  1.00  0.00    +0.000 H 
ATOM    150  H47 UNL A   1      13.257  48.122  14.984  1.00  0.00    +0.000 H 
BRANCH    5    2
ATOM      2  S1  UNL A   1      10.653  46.922  15.114  1.00  0.00    +0.000 S 
ATOM      3  O1  UNL A   1      11.302  45.909  14.304  1.00  0.00    +0.000 O 
ATOM      4  O2  UNL A   1       9.207  47.011  15.183  1.00  0.00    +0.000 O 
BRANCH    2    1
ATOM      1  C1  UNL A   1      11.282  46.761  16.765  1.00  0.00    +0.000 C 
ATOM    106  H3  UNL A   1      12.270  46.352  16.732  1.00  0.00    +0.000 H 
ATOM    105  H2  UNL A   1      11.309  47.723  17.232  1.00  0.00    +0.000 H 
ATOM    104  H1  UNL A   1      10.646  46.109  17.327  1.00  0.00    +0.000 H 
ENDBRANCH    2    1
ENDBRANCH    5    2
ENDBRANCH    9    8
ENDBRANCH   10    9
BRANCH   10   86
ATOM    101  C72 UNL A   1      11.819  52.491  10.268  1.00  0.00    +0.000 C 
ATOM    138  H35 UNL A   1      13.561  55.191  11.209  1.00  0.00    +0.000 H 
ATOM    139  H36 UNL A   1      12.626  56.061   9.154  1.00  0.00    +0.000 H 
ATOM    140  H37 UNL A   1      11.280  54.628   7.742  1.00  0.00    +0.000 H 
ATOM    148  H45 UNL A   1      11.539  51.555  10.606  1.00  0.00    +0.000 H 
ATOM     86  C60 UNL A   1      12.665  53.284  11.054  1.00  0.00    +0.000 C 
ATOM     87  C61 UNL A   1      12.953  54.592  10.630  1.00  0.00    +0.000 C 
ATOM     88  C62 UNL A   1      12.432  55.088   9.439  1.00  0.00    +0.000 C 
ATOM     89  C63 UNL A   1      11.646  54.266   8.637  1.00  0.00    +0.000 C 
ATOM     90  C64 UNL A   1      11.345  52.951   9.026  1.00  0.00    +0.000 C 
BRANCH   90   91
ATOM     99  C70 UNL A   1       9.923  51.417   5.867  1.00  0.00    +0.000 C 
ATOM    100  C71 UNL A   1      10.636  52.264   6.719  1.00  0.00    +0.000 C 
ATOM    141  H38 UNL A   1       9.996  50.727   9.627  1.00  0.00    +0.000 H 
ATOM    142  H39 UNL A   1       8.738  49.265   8.160  1.00  0.00    +0.000 H 
ATOM    146  H43 UNL A   1       9.903  51.597   4.851  1.00  0.00    +0.000 H 
ATOM    147  H44 UNL A   1      11.146  53.071   6.326  1.00  0.00    +0.000 H 
ATOM     91  C65 UNL A   1      10.669  52.030   8.102  1.00  0.00    +0.000 C 
ATOM     92  C66 UNL A   1       9.973  50.917   8.613  1.00  0.00    +0.000 C 
ATOM     93  C67 UNL A   1       9.253  50.071   7.773  1.00  0.00    +0.000 C 
ATOM     94  C68 UNL A   1       9.236  50.326   6.402  1.00  0.00    +0.000 C 
BRANCH   94   95
ATOM     97  O5  UNL A   1       9.081  48.103   5.079  1.00  0.00    +0.000 O 
ATOM     98  O6  UNL A   1       6.950  49.145   5.945  1.00  0.00    +0.000 O 
ATOM     95  S2  UNL A   1       8.268  49.271   5.351  1.00  0.00    +0.000 S 
BRANCH   95   96
ATOM    145  H42 UNL A   1       9.047  50.247   3.351  1.00  0.00    +0.000 H 
ATOM    144  H41 UNL A   1       7.380  49.737   3.218  1.00  0.00    +0.000 H 
ATOM    143  H40 UNL A   1       7.780  51.200   4.087  1.00  0.00    +0.000 H 
ATOM     96  C69 UNL A   1       8.102  50.207   3.854  1.00  0.00    +0.000 C 
ENDBRANCH   95   96
ENDBRANCH   94   95
ENDBRANCH   90   91
ENDBRANCH   10   86
ENDBRANCH   11   10
ENDBRANCH   13   11
ENDBRANCH   14   13
ENDBRANCH   15   14
ENDBRANCH   16   15
ENDBRANCH   17   16
ENDBRANCH   18   17
ENDBRANCH   19   18
ENDBRANCH   20   19
ENDBRANCH   21   20
ENDBRANCH   23   21
ENDBRANCH   27   26
BRANCH   31   32
ATOM     33  C25 UNL A   1      15.591  56.742   6.474  1.00  0.00    +0.000 C 
ATOM     34  F1  UNL A   1      16.885  56.411   6.355  1.00  0.00    +0.000 F 
ATOM     35  C26 UNL A   1      15.234  57.738   7.379  1.00  0.00    +0.000 C 
ATOM     36  F2  UNL A   1      16.176  58.337   8.120  1.00  0.00    +0.000 F 
ATOM     37  C27 UNL A   1      13.904  58.101   7.525  1.00  0.00    +0.000 C 
ATOM     38  F3  UNL A   1      13.562  59.065   8.393  1.00  0.00    +0.000 F 
ATOM     39  C28 UNL A   1      12.926  57.461   6.778  1.00  0.00    +0.000 C 
ATOM     40  F4  UNL A   1      11.642  57.821   6.909  1.00  0.00    +0.000 F 
ATOM     41  C29 UNL A   1      13.277  56.446   5.893  1.00  0.00    +0.000 C 
ATOM     42  F5  UNL A   1      12.307  55.835   5.195  1.00  0.00    +0.000 F 
ATOM     32  C24 UNL A   1      14.617  56.066   5.722  1.00  0.00    +0.000 C 
ENDBRANCH   31   32
BRANCH   48   49
ATOM     49  C35 UNL A   1      17.250  55.621  -0.968  1.00  0.00    +0.000 C 
ATOM     50  C36 UNL A   1      16.347  56.197  -1.874  1.00  0.00    +0.000 C 
ATOM     51  F6  UNL A   1      15.049  55.862  -1.837  1.00  0.00    +0.000 F 
ATOM     52  C37 UNL A   1      16.783  57.098  -2.841  1.00  0.00    +0.000 C 
ATOM     53  F7  UNL A   1      15.909  57.608  -3.721  1.00  0.00    +0.000 F 
ATOM     54  C38 UNL A   1      18.119  57.463  -2.903  1.00  0.00    +0.000 C 
ATOM     55  F8  UNL A   1      18.534  58.340  -3.828  1.00  0.00    +0.000 F 
ATOM     56  C39 UNL A   1      19.028  56.913  -2.011  1.00  0.00    +0.000 C 
ATOM     57  F9  UNL A   1      20.318  57.274  -2.060  1.00  0.00    +0.000 F 
ATOM     58  C40 UNL A   1      18.601  55.991  -1.060  1.00  0.00    +0.000 C 
ATOM     59  F10 UNL A   1      19.503  55.472  -0.213  1.00  0.00    +0.000 F 
ENDBRANCH   48   49
BRANCH   63   64
ATOM     65  C45 UNL A   1      17.891  47.944  -0.600  1.00  0.00    +0.000 C 
ATOM     66  F11 UNL A   1      18.806  48.238   0.336  1.00  0.00    +0.000 F 
ATOM     67  C46 UNL A   1      18.163  46.928  -1.514  1.00  0.00    +0.000 C 
ATOM     68  F12 UNL A   1      19.326  46.267  -1.450  1.00  0.00    +0.000 F 
ATOM     69  C47 UNL A   1      17.237  46.610  -2.497  1.00  0.00    +0.000 C 
ATOM     70  F13 UNL A   1      17.496  45.628  -3.371  1.00  0.00    +0.000 F 
ATOM     71  C48 UNL A   1      16.045  47.314  -2.574  1.00  0.00    +0.000 C 
ATOM     72  F14 UNL A   1      15.141  46.999  -3.511  1.00  0.00    +0.000 F 
ATOM     73  C49 UNL A   1      15.784  48.348  -1.678  1.00  0.00    +0.000 C 
ATOM     74  F15 UNL A   1      14.628  49.020  -1.783  1.00  0.00    +0.000 F 
ATOM     64  C44 UNL A   1      16.700  48.680  -0.669  1.00  0.00    +0.000 C 
ENDBRANCH   63   64
TORSDOF 23
ENDMDL
MODEL 6
REMARK VINA RESULT:     -10.4     27.279     34.850
ROOT
ATOM    129  H26 UNL A   1      25.482  22.547   3.264  1.00  0.00    +0.000 H 
ATOM    130  H27 UNL A   1      24.264  24.511   2.212  1.00  0.00    +0.000 H 
ATOM    131  H28 UNL A   1      21.512  21.440   2.735  1.00  0.00    +0.000 H 
ATOM    132  H29 UNL A   1      23.956  17.812   5.221  1.00  0.00    +0.000 H 
ATOM    133  H30 UNL A   1      21.774  16.476   5.157  1.00  0.00    +0.000 H 
ATOM    134  H31 UNL A   1      17.048  24.235   0.867  1.00  0.00    +0.000 H 
ATOM    135  H32 UNL A   1      19.289  25.439   0.576  1.00  0.00    +0.000 H 
ATOM     27  C20 UNL A   1      21.489  24.056   1.741  1.00  0.00    +0.000 C 
ATOM     28  C21 UNL A   1      20.068  23.585   1.625  1.00  0.00    +0.000 C 
ATOM     29  N3  UNL A   1      19.534  22.458   2.023  1.00  0.00    +0.000 N 
ATOM     30  C22 UNL A   1      18.185  22.550   1.713  1.00  0.00    +0.000 C 
ATOM     31  C23 UNL A   1      17.217  21.616   1.875  1.00  0.00    +0.000 C 
ATOM     43  C30 UNL A   1      17.441  20.307   2.428  1.00  0.00    +0.000 C 
ATOM     44  C31 UNL A   1      16.541  19.265   2.570  1.00  0.00    +0.000 C 
ATOM     45  C32 UNL A   1      17.195  18.207   3.212  1.00  0.00    +0.000 C 
ATOM     46  C33 UNL A   1      18.515  18.571   3.425  1.00  0.00    +0.000 C 
ATOM     47  N4  UNL A   1      18.652  19.861   2.938  1.00  0.00    +0.000 N 
ATOM     48  C34 UNL A   1      19.569  17.805   4.039  1.00  0.00    +0.000 C 
ATOM     60  C41 UNL A   1      20.854  18.214   4.167  1.00  0.00    +0.000 C 
ATOM     61  N5  UNL A   1      21.434  19.409   3.762  1.00  0.00    +0.000 N 
ATOM     62  C42 UNL A   1      22.693  19.338   4.119  1.00  0.00    +0.000 C 
ATOM     63  C43 UNL A   1      23.794  20.344   3.918  1.00  0.00    +0.000 C 
ATOM     75  C50 UNL A   1      23.519  21.502   3.287  1.00  0.00    +0.000 C 
ATOM     76  C51 UNL A   1      24.475  22.576   3.038  1.00  0.00    +0.000 C 
ATOM     77  C52 UNL A   1      23.834  23.609   2.469  1.00  0.00    +0.000 C 
ATOM     78  C53 UNL A   1      22.429  23.250   2.270  1.00  0.00    +0.000 C 
ATOM     79  N6  UNL A   1      22.341  21.971   2.760  1.00  0.00    +0.000 N 
ATOM     80  C54 UNL A   1      23.050  18.094   4.815  1.00  0.00    +0.000 C 
ATOM     81  C55 UNL A   1      21.903  17.430   4.786  1.00  0.00    +0.000 C 
ATOM     82  C56 UNL A   1      17.970  23.861   1.138  1.00  0.00    +0.000 C 
ATOM     83  C57 UNL A   1      19.114  24.516   1.004  1.00  0.00    +0.000 C 
ATOM    126  H23 UNL A   1      15.557  19.268   2.258  1.00  0.00    +0.000 H 
ATOM    127  H24 UNL A   1      16.767  17.307   3.480  1.00  0.00    +0.000 H 
ATOM    128  H25 UNL A   1      19.486  20.384   2.950  1.00  0.00    +0.000 H 
ENDROOT
BRANCH   27   26
ATOM    136  H33 UNL A   1      21.392  26.245   3.266  1.00  0.00    +0.000 H 
ATOM    137  H34 UNL A   1      21.984  28.524   2.693  1.00  0.00    +0.000 H 
ATOM     84  C58 UNL A   1      21.746  26.463   2.322  1.00  0.00    +0.000 C 
ATOM     85  C59 UNL A   1      22.123  27.765   2.007  1.00  0.00    +0.000 C 
ATOM     23  C16 UNL A   1      22.692  28.040   0.761  1.00  0.00    +0.000 C 
ATOM     24  C17 UNL A   1      22.749  27.050  -0.224  1.00  0.00    +0.000 C 
ATOM     25  C18 UNL A   1      22.309  25.757   0.072  1.00  0.00    +0.000 C 
ATOM     26  C19 UNL A   1      21.847  25.445   1.361  1.00  0.00    +0.000 C 
ATOM    124  H21 UNL A   1      23.113  27.272  -1.162  1.00  0.00    +0.000 H 
ATOM    125  H22 UNL A   1      22.323  25.030  -0.659  1.00  0.00    +0.000 H 
BRANCH   23   21
ATOM     21  C15 UNL A   1      23.254  29.376   0.472  1.00  0.00    +0.000 C 
ATOM     22  O4  UNL A   1      23.647  30.088   1.389  1.00  0.00    +0.000 O 
BRANCH   21   20
ATOM    123  H20 UNL A   1      24.222  29.877  -1.215  1.00  0.00    +0.000 H 
ATOM     20  N2  UNL A   1      23.318  29.814  -0.829  1.00  0.00    +0.000 N 
BRANCH   20   19
ATOM    121  H18 UNL A   1      22.636  30.596  -2.617  1.00  0.00    +0.000 H 
ATOM    122  H19 UNL A   1      21.638  29.324  -1.907  1.00  0.00    +0.000 H 
ATOM     19  C14 UNL A   1      22.226  30.196  -1.713  1.00  0.00    +0.000 C 
BRANCH   19   18
ATOM     18  C13 UNL A   1      21.318  31.245  -1.077  1.00  0.00    +0.000 C 
ATOM    119  H16 UNL A   1      21.885  31.778  -0.342  1.00  0.00    +0.000 H 
ATOM    120  H17 UNL A   1      20.973  31.874  -1.871  1.00  0.00    +0.000 H 
BRANCH   18   17
ATOM     17  C12 UNL A   1      20.073  30.670  -0.398  1.00  0.00    +0.000 C 
ATOM    117  H14 UNL A   1      20.236  30.683   0.659  1.00  0.00    +0.000 H 
ATOM    118  H15 UNL A   1      19.253  31.284  -0.709  1.00  0.00    +0.000 H 
BRANCH   17   16
ATOM    115  H12 UNL A   1      20.513  28.857  -1.414  1.00  0.00    +0.000 H 
ATOM    116  H13 UNL A   1      19.576  28.691   0.101  1.00  0.00    +0.000 H 
ATOM     16  C11 UNL A   1      19.716  29.237  -0.809  1.00  0.00    +0.000 C 
BRANCH   16   15
ATOM    113  H10 UNL A   1      18.613  29.266  -2.635  1.00  0.00    +0.000 H 
ATOM    114  H11 UNL A   1      18.039  28.100  -1.423  1.00  0.00    +0.000 H 
ATOM     15  C10 UNL A   1      18.406  29.090  -1.601  1.00  0.00    +0.000 C 
BRANCH   15   14
ATOM     14  C9  UNL A   1      17.310  30.063  -1.154  1.00  0.00    +0.000 C 
ATOM    111  H8  UNL A   1      17.539  30.434  -0.177  1.00  0.00    +0.000 H 
ATOM    112  H9  UNL A   1      17.257  30.878  -1.845  1.00  0.00    +0.000 H 
BRANCH   14   13
ATOM     13  N1  UNL A   1      16.032  29.379  -1.122  1.00  0.00    +0.000 N 
ATOM    110  H7  UNL A   1      15.876  28.893  -0.280  1.00  0.00    +0.000 H 
BRANCH   13   11
ATOM     11  C8  UNL A   1      15.004  29.265  -2.002  1.00  0.00    +0.000 C 
ATOM     12  O3  UNL A   1      14.944  30.137  -2.872  1.00  0.00    +0.000 O 
BRANCH   11   10
ATOM     10  C7  UNL A   1      13.910  28.225  -1.882  1.00  0.00    +0.000 C 
BRANCH   10    9
ATOM      9  C6  UNL A   1      12.745  28.465  -1.235  1.00  0.00    +0.000 C 
ATOM    109  H6  UNL A   1      12.111  29.132  -1.701  1.00  0.00    +0.000 H 
BRANCH    9    8
ATOM      5  C2  UNL A   1      11.131  26.984   2.455  1.00  0.00    +0.000 C 
ATOM    102  C73 UNL A   1      11.717  28.806   0.984  1.00  0.00    +0.000 C 
ATOM      6  C3  UNL A   1      11.700  26.076   1.562  1.00  0.00    +0.000 C 
ATOM    103  C74 UNL A   1      11.160  28.352   2.184  1.00  0.00    +0.000 C 
ATOM      7  C4  UNL A   1      12.276  26.543   0.372  1.00  0.00    +0.000 C 
ATOM      8  C5  UNL A   1      12.252  27.906   0.046  1.00  0.00    +0.000 C 
ATOM    107  H4  UNL A   1      11.697  25.067   1.774  1.00  0.00    +0.000 H 
ATOM    108  H5  UNL A   1      12.725  25.874  -0.272  1.00  0.00    +0.000 H 
ATOM    149  H46 UNL A   1      11.737  29.818   0.784  1.00  0.00    +0.000 H 
ATOM    150  H47 UNL A   1      10.772  29.024   2.864  1.00  0.00    +0.000 H 
BRANCH    5    2
ATOM      2  S1  UNL A   1      10.391  26.401   3.965  1.00  0.00    +0.000 S 
ATOM      3  O1  UNL A   1       9.963  27.568   4.715  1.00  0.00    +0.000 O 
ATOM      4  O2  UNL A   1      11.321  25.446   4.536  1.00  0.00    +0.000 O 
BRANCH    2    1
ATOM      1  C1  UNL A   1       8.929  25.529   3.467  1.00  0.00    +0.000 C 
ATOM    106  H3  UNL A   1       8.995  25.285   2.427  1.00  0.00    +0.000 H 
ATOM    105  H2  UNL A   1       8.837  24.630   4.040  1.00  0.00    +0.000 H 
ATOM    104  H1  UNL A   1       8.071  26.148   3.632  1.00  0.00    +0.000 H 
ENDBRANCH    2    1
ENDBRANCH    5    2
ENDBRANCH    9    8
ENDBRANCH   10    9
BRANCH   10   86
ATOM    101  C72 UNL A   1      15.459  26.234  -2.059  1.00  0.00    +0.000 C 
ATOM    138  H35 UNL A   1      12.448  26.658  -3.464  1.00  0.00    +0.000 H 
ATOM    139  H36 UNL A   1      13.020  24.533  -4.467  1.00  0.00    +0.000 H 
ATOM    140  H37 UNL A   1      15.188  23.544  -4.042  1.00  0.00    +0.000 H 
ATOM    148  H45 UNL A   1      16.083  26.654  -1.352  1.00  0.00    +0.000 H 
ATOM     86  C60 UNL A   1      14.239  26.855  -2.360  1.00  0.00    +0.000 C 
ATOM     87  C61 UNL A   1      13.356  26.219  -3.248  1.00  0.00    +0.000 C 
ATOM     88  C62 UNL A   1      13.691  25.005  -3.841  1.00  0.00    +0.000 C 
ATOM     89  C63 UNL A   1      14.932  24.433  -3.583  1.00  0.00    +0.000 C 
ATOM     90  C64 UNL A   1      15.843  25.047  -2.708  1.00  0.00    +0.000 C 
BRANCH   90   91
ATOM     99  C70 UNL A   1      19.600  24.900  -2.238  1.00  0.00    +0.000 C 
ATOM    100  C71 UNL A   1      18.292  25.391  -2.286  1.00  0.00    +0.000 C 
ATOM    141  H38 UNL A   1      16.696  22.534  -3.008  1.00  0.00    +0.000 H 
ATOM    142  H39 UNL A   1      18.962  21.678  -2.948  1.00  0.00    +0.000 H 
ATOM    146  H43 UNL A   1      20.386  25.534  -2.027  1.00  0.00    +0.000 H 
ATOM    147  H44 UNL A   1      18.117  26.392  -2.107  1.00  0.00    +0.000 H 
ATOM     91  C65 UNL A   1      17.215  24.539  -2.574  1.00  0.00    +0.000 C 
ATOM     92  C66 UNL A   1      17.479  23.175  -2.805  1.00  0.00    +0.000 C 
ATOM     93  C67 UNL A   1      18.780  22.677  -2.766  1.00  0.00    +0.000 C 
ATOM     94  C68 UNL A   1      19.833  23.545  -2.479  1.00  0.00    +0.000 C 
BRANCH   94   95
ATOM     97  O5  UNL A   1      22.340  23.973  -2.975  1.00  0.00    +0.000 O 
ATOM     98  O6  UNL A   1      21.731  22.283  -1.200  1.00  0.00    +0.000 O 
ATOM     95  S2  UNL A   1      21.490  22.906  -2.488  1.00  0.00    +0.000 S 
BRANCH   95   96
ATOM    145  H42 UNL A   1      20.588  21.768  -4.346  1.00  0.00    +0.000 H 
ATOM    144  H41 UNL A   1      22.332  21.654  -4.299  1.00  0.00    +0.000 H 
ATOM    143  H40 UNL A   1      21.362  20.671  -3.227  1.00  0.00    +0.000 H 
ATOM     96  C69 UNL A   1      21.438  21.622  -3.711  1.00  0.00    +0.000 C 
ENDBRANCH   95   96
ENDBRANCH   94   95
ENDBRANCH   90   91
ENDBRANCH   10   86
ENDBRANCH   11   10
ENDBRANCH   13   11
ENDBRANCH   14   13
ENDBRANCH   15   14
ENDBRANCH   16   15
ENDBRANCH   17   16
ENDBRANCH   18   17
ENDBRANCH   19   18
ENDBRANCH   20   19
ENDBRANCH   21   20
ENDBRANCH   23   21
ENDBRANCH   27   26
BRANCH   31   32
ATOM     33  C25 UNL A   1      14.900  22.529   2.349  1.00  0.00    +0.000 C 
ATOM     34  F1  UNL A   1      15.233  22.701   3.637  1.00  0.00    +0.000 F 
ATOM     35  C26 UNL A   1      13.615  22.871   1.937  1.00  0.00    +0.000 C 
ATOM     36  F2  UNL A   1      12.734  23.352   2.825  1.00  0.00    +0.000 F 
ATOM     37  C27 UNL A   1      13.241  22.703   0.613  1.00  0.00    +0.000 C 
ATOM     38  F3  UNL A   1      12.005  23.040   0.216  1.00  0.00    +0.000 F 
ATOM     39  C28 UNL A   1      14.145  22.180  -0.300  1.00  0.00    +0.000 C 
ATOM     40  F4  UNL A   1      13.788  22.030  -1.583  1.00  0.00    +0.000 F 
ATOM     41  C29 UNL A   1      15.421  21.810   0.115  1.00  0.00    +0.000 C 
ATOM     42  F5  UNL A   1      16.268  21.293  -0.789  1.00  0.00    +0.000 F 
ATOM     32  C24 UNL A   1      15.825  21.977   1.448  1.00  0.00    +0.000 C 
ENDBRANCH   31   32
BRANCH   48   49
ATOM     49  C35 UNL A   1      19.225  16.442   4.560  1.00  0.00    +0.000 C 
ATOM     50  C36 UNL A   1      18.746  16.257   5.866  1.00  0.00    +0.000 C 
ATOM     51  F6  UNL A   1      18.652  17.299   6.704  1.00  0.00    +0.000 F 
ATOM     52  C37 UNL A   1      18.391  14.991   6.323  1.00  0.00    +0.000 C 
ATOM     53  F7  UNL A   1      17.970  14.831   7.586  1.00  0.00    +0.000 F 
ATOM     54  C38 UNL A   1      18.478  13.895   5.479  1.00  0.00    +0.000 C 
ATOM     55  F8  UNL A   1      18.122  12.679   5.918  1.00  0.00    +0.000 F 
ATOM     56  C39 UNL A   1      18.939  14.057   4.181  1.00  0.00    +0.000 C 
ATOM     57  F9  UNL A   1      19.012  13.000   3.359  1.00  0.00    +0.000 F 
ATOM     58  C40 UNL A   1      19.322  15.316   3.729  1.00  0.00    +0.000 C 
ATOM     59  F10 UNL A   1      19.770  15.441   2.471  1.00  0.00    +0.000 F 
ENDBRANCH   48   49
BRANCH   63   64
ATOM     65  C45 UNL A   1      26.195  19.750   3.488  1.00  0.00    +0.000 C 
ATOM     66  F11 UNL A   1      25.923  19.668   2.177  1.00  0.00    +0.000 F 
ATOM     67  C46 UNL A   1      27.488  19.477   3.927  1.00  0.00    +0.000 C 
ATOM     68  F12 UNL A   1      28.435  19.136   3.044  1.00  0.00    +0.000 F 
ATOM     69  C47 UNL A   1      27.794  19.546   5.278  1.00  0.00    +0.000 C 
ATOM     70  F13 UNL A   1      29.039  19.290   5.700  1.00  0.00    +0.000 F 
ATOM     71  C48 UNL A   1      26.803  19.875   6.192  1.00  0.00    +0.000 C 
ATOM     72  F14 UNL A   1      27.098  19.958   7.497  1.00  0.00    +0.000 F 
ATOM     73  C49 UNL A   1      25.503  20.121   5.757  1.00  0.00    +0.000 C 
ATOM     74  F15 UNL A   1      24.564  20.427   6.664  1.00  0.00    +0.000 F 
ATOM     64  C44 UNL A   1      25.174  20.069   4.395  1.00  0.00    +0.000 C 
ENDBRANCH   63   64
TORSDOF 23
ENDMDL
MODEL 7
REMARK VINA RESULT:     -10.4     24.296     32.206
ROOT
ATOM    129  H26 UNL A   1      16.117  15.647  10.423  1.00  0.00    +0.000 H 
ATOM    130  H27 UNL A   1      18.217  15.370   9.023  1.00  0.00    +0.000 H 
ATOM    131  H28 UNL A   1      16.102  18.617   7.517  1.00  0.00    +0.000 H 
ATOM    132  H29 UNL A   1      12.228  19.308  10.652  1.00  0.00    +0.000 H 
ATOM    133  H30 UNL A   1      11.549  21.283   9.172  1.00  0.00    +0.000 H 
ATOM    134  H31 UNL A   1      19.807  20.046   3.584  1.00  0.00    +0.000 H 
ATOM    135  H32 UNL A   1      20.305  17.851   4.807  1.00  0.00    +0.000 H 
ATOM     27  C20 UNL A   1      18.500  17.295   6.938  1.00  0.00    +0.000 C 
ATOM     28  C21 UNL A   1      18.432  18.424   5.950  1.00  0.00    +0.000 C 
ATOM     29  N3  UNL A   1      17.546  19.382   5.848  1.00  0.00    +0.000 N 
ATOM     30  C22 UNL A   1      17.974  20.180   4.797  1.00  0.00    +0.000 C 
ATOM     31  C23 UNL A   1      17.367  21.267   4.263  1.00  0.00    +0.000 C 
ATOM     43  C30 UNL A   1      16.115  21.804   4.724  1.00  0.00    +0.000 C 
ATOM     44  C31 UNL A   1      15.384  22.859   4.206  1.00  0.00    +0.000 C 
ATOM     45  C32 UNL A   1      14.262  23.054   5.018  1.00  0.00    +0.000 C 
ATOM     46  C33 UNL A   1      14.267  22.090   6.014  1.00  0.00    +0.000 C 
ATOM     47  N4  UNL A   1      15.409  21.329   5.820  1.00  0.00    +0.000 N 
ATOM     48  C34 UNL A   1      13.310  21.886   7.071  1.00  0.00    +0.000 C 
ATOM     60  C41 UNL A   1      13.358  20.885   7.982  1.00  0.00    +0.000 C 
ATOM     61  N5  UNL A   1      14.294  19.868   8.112  1.00  0.00    +0.000 N 
ATOM     62  C42 UNL A   1      13.917  19.160   9.148  1.00  0.00    +0.000 C 
ATOM     63  C43 UNL A   1      14.551  17.929   9.737  1.00  0.00    +0.000 C 
ATOM     75  C50 UNL A   1      15.665  17.427   9.170  1.00  0.00    +0.000 C 
ATOM     76  C51 UNL A   1      16.399  16.258   9.640  1.00  0.00    +0.000 C 
ATOM     77  C52 UNL A   1      17.502  16.103   8.891  1.00  0.00    +0.000 C 
ATOM     78  C53 UNL A   1      17.527  17.137   7.856  1.00  0.00    +0.000 C 
ATOM     79  N6  UNL A   1      16.383  17.861   8.081  1.00  0.00    +0.000 N 
ATOM     80  C54 UNL A   1      12.705  19.663   9.809  1.00  0.00    +0.000 C 
ATOM     81  C55 UNL A   1      12.385  20.694   9.037  1.00  0.00    +0.000 C 
ATOM     82  C56 UNL A   1      19.223  19.624   4.323  1.00  0.00    +0.000 C 
ATOM     83  C57 UNL A   1      19.518  18.501   4.962  1.00  0.00    +0.000 C 
ATOM    126  H23 UNL A   1      15.626  23.407   3.366  1.00  0.00    +0.000 H 
ATOM    127  H24 UNL A   1      13.550  23.791   4.897  1.00  0.00    +0.000 H 
ATOM    128  H25 UNL A   1      15.678  20.563   6.377  1.00  0.00    +0.000 H 
ENDROOT
BRANCH   27   26
ATOM    136  H33 UNL A   1      20.584  17.409   8.603  1.00  0.00    +0.000 H 
ATOM    137  H34 UNL A   1      22.529  15.966   8.704  1.00  0.00    +0.000 H 
ATOM     84  C58 UNL A   1      20.674  16.618   7.947  1.00  0.00    +0.000 C 
ATOM     85  C59 UNL A   1      21.771  15.768   8.032  1.00  0.00    +0.000 C 
ATOM     23  C16 UNL A   1      21.843  14.643   7.205  1.00  0.00    +0.000 C 
ATOM     24  C17 UNL A   1      20.898  14.447   6.195  1.00  0.00    +0.000 C 
ATOM     25  C18 UNL A   1      19.830  15.339   6.068  1.00  0.00    +0.000 C 
ATOM     26  C19 UNL A   1      19.686  16.405   6.971  1.00  0.00    +0.000 C 
ATOM    124  H21 UNL A   1      20.987  13.650   5.548  1.00  0.00    +0.000 H 
ATOM    125  H22 UNL A   1      19.145  15.215   5.307  1.00  0.00    +0.000 H 
BRANCH   23   21
ATOM     21  C15 UNL A   1      22.910  13.639   7.397  1.00  0.00    +0.000 C 
ATOM     22  O4  UNL A   1      22.823  12.818   8.304  1.00  0.00    +0.000 O 
BRANCH   21   20
ATOM    123  H20 UNL A   1      24.361  12.759   6.323  1.00  0.00    +0.000 H 
ATOM     20  N2  UNL A   1      24.000  13.644   6.562  1.00  0.00    +0.000 N 
BRANCH   20   19
ATOM    121  H18 UNL A   1      25.282  14.449   5.153  1.00  0.00    +0.000 H 
ATOM    122  H19 UNL A   1      23.956  15.495   5.669  1.00  0.00    +0.000 H 
ATOM     19  C14 UNL A   1      24.693  14.786   5.981  1.00  0.00    +0.000 C 
BRANCH   19   18
ATOM     18  C13 UNL A   1      25.609  15.471   6.991  1.00  0.00    +0.000 C 
ATOM    119  H16 UNL A   1      25.081  16.302   7.413  1.00  0.00    +0.000 H 
ATOM    120  H17 UNL A   1      25.871  14.733   7.719  1.00  0.00    +0.000 H 
BRANCH   18   17
ATOM     17  C12 UNL A   1      26.921  15.989   6.398  1.00  0.00    +0.000 C 
ATOM    117  H14 UNL A   1      27.529  15.144   6.148  1.00  0.00    +0.000 H 
ATOM    118  H15 UNL A   1      26.652  16.583   5.549  1.00  0.00    +0.000 H 
BRANCH   17   16
ATOM    115  H12 UNL A   1      27.046  17.492   7.894  1.00  0.00    +0.000 H 
ATOM    116  H13 UNL A   1      28.341  16.258   7.922  1.00  0.00    +0.000 H 
ATOM     16  C11 UNL A   1      27.733  16.903   7.323  1.00  0.00    +0.000 C 
BRANCH   16   15
ATOM    113  H10 UNL A   1      28.394  18.866   6.809  1.00  0.00    +0.000 H 
ATOM    114  H11 UNL A   1      29.683  17.655   6.986  1.00  0.00    +0.000 H 
ATOM     15  C10 UNL A   1      28.702  17.861   6.609  1.00  0.00    +0.000 C 
BRANCH   15   14
ATOM     14  C9  UNL A   1      28.752  17.662   5.091  1.00  0.00    +0.000 C 
ATOM    111  H8  UNL A   1      29.715  17.289   4.812  1.00  0.00    +0.000 H 
ATOM    112  H9  UNL A   1      27.997  16.961   4.801  1.00  0.00    +0.000 H 
BRANCH   14   13
ATOM     13  N1  UNL A   1      28.513  18.926   4.423  1.00  0.00    +0.000 N 
ATOM    110  H7  UNL A   1      29.144  19.631   4.696  1.00  0.00    +0.000 H 
BRANCH   13   11
ATOM     11  C8  UNL A   1      27.607  19.348   3.503  1.00  0.00    +0.000 C 
ATOM     12  O3  UNL A   1      27.811  20.466   3.026  1.00  0.00    +0.000 O 
BRANCH   11   10
ATOM     10  C7  UNL A   1      26.350  18.581   3.153  1.00  0.00    +0.000 C 
BRANCH   10    9
ATOM      9  C6  UNL A   1      26.160  18.008   1.940  1.00  0.00    +0.000 C 
ATOM    109  H6  UNL A   1      26.245  16.980   1.919  1.00  0.00    +0.000 H 
BRANCH    9    8
ATOM      5  C2  UNL A   1      25.434  19.740  -1.919  1.00  0.00    +0.000 C 
ATOM    102  C73 UNL A   1      26.929  19.110  -0.131  1.00  0.00    +0.000 C 
ATOM      6  C3  UNL A   1      24.342  19.334  -1.151  1.00  0.00    +0.000 C 
ATOM    103  C74 UNL A   1      26.728  19.655  -1.403  1.00  0.00    +0.000 C 
ATOM      7  C4  UNL A   1      24.553  18.810   0.132  1.00  0.00    +0.000 C 
ATOM      8  C5  UNL A   1      25.849  18.648   0.640  1.00  0.00    +0.000 C 
ATOM    107  H4  UNL A   1      23.384  19.418  -1.525  1.00  0.00    +0.000 H 
ATOM    108  H5  UNL A   1      23.743  18.540   0.710  1.00  0.00    +0.000 H 
ATOM    149  H46 UNL A   1      27.887  19.047   0.248  1.00  0.00    +0.000 H 
ATOM    150  H47 UNL A   1      27.531  19.991  -1.958  1.00  0.00    +0.000 H 
BRANCH    5    2
ATOM      2  S1  UNL A   1      25.178  20.401  -3.551  1.00  0.00    +0.000 S 
ATOM      3  O1  UNL A   1      24.316  21.561  -3.417  1.00  0.00    +0.000 O 
ATOM      4  O2  UNL A   1      24.801  19.282  -4.392  1.00  0.00    +0.000 O 
BRANCH    2    1
ATOM      1  C1  UNL A   1      26.769  20.985  -4.076  1.00  0.00    +0.000 C 
ATOM    106  H3  UNL A   1      27.041  21.845  -3.502  1.00  0.00    +0.000 H 
ATOM    105  H2  UNL A   1      27.497  20.214  -3.932  1.00  0.00    +0.000 H 
ATOM    104  H1  UNL A   1      26.728  21.247  -5.113  1.00  0.00    +0.000 H 
ENDBRANCH    2    1
ENDBRANCH    5    2
ENDBRANCH    9    8
ENDBRANCH   10    9
BRANCH   10   86
ATOM    101  C72 UNL A   1      25.429  19.120   5.445  1.00  0.00    +0.000 C 
ATOM    138  H35 UNL A   1      23.858  17.687   2.858  1.00  0.00    +0.000 H 
ATOM    139  H36 UNL A   1      22.088  17.514   4.499  1.00  0.00    +0.000 H 
ATOM    140  H37 UNL A   1      22.477  18.247   6.772  1.00  0.00    +0.000 H 
ATOM    148  H45 UNL A   1      26.301  19.622   5.679  1.00  0.00    +0.000 H 
ATOM     86  C60 UNL A   1      25.244  18.627   4.147  1.00  0.00    +0.000 C 
ATOM     87  C61 UNL A   1      24.013  18.038   3.816  1.00  0.00    +0.000 C 
ATOM     88  C62 UNL A   1      22.999  17.921   4.763  1.00  0.00    +0.000 C 
ATOM     89  C63 UNL A   1      23.221  18.356   6.065  1.00  0.00    +0.000 C 
ATOM     90  C64 UNL A   1      24.444  18.941   6.433  1.00  0.00    +0.000 C 
BRANCH   90   91
ATOM     99  C70 UNL A   1      25.915  20.516   9.548  1.00  0.00    +0.000 C 
ATOM    100  C71 UNL A   1      25.583  20.299   8.209  1.00  0.00    +0.000 C 
ATOM    141  H38 UNL A   1      23.607  17.620   8.597  1.00  0.00    +0.000 H 
ATOM    142  H39 UNL A   1      24.195  17.976  10.921  1.00  0.00    +0.000 H 
ATOM    146  H43 UNL A   1      26.535  21.299   9.811  1.00  0.00    +0.000 H 
ATOM    147  H44 UNL A   1      25.959  20.927   7.482  1.00  0.00    +0.000 H 
ATOM     91  C65 UNL A   1      24.743  19.237   7.841  1.00  0.00    +0.000 C 
ATOM     92  C66 UNL A   1      24.235  18.398   8.852  1.00  0.00    +0.000 C 
ATOM     93  C67 UNL A   1      24.565  18.603  10.190  1.00  0.00    +0.000 C 
ATOM     94  C68 UNL A   1      25.403  19.665  10.529  1.00  0.00    +0.000 C 
BRANCH   94   95
ATOM     97  O5  UNL A   1      24.727  19.438  13.020  1.00  0.00    +0.000 O 
ATOM     98  O6  UNL A   1      27.174  19.290  12.413  1.00  0.00    +0.000 O 
ATOM     95  S2  UNL A   1      25.860  19.878  12.232  1.00  0.00    +0.000 S 
BRANCH   95   96
ATOM    145  H42 UNL A   1      26.676  22.011  11.648  1.00  0.00    +0.000 H 
ATOM    144  H41 UNL A   1      25.060  22.094  12.308  1.00  0.00    +0.000 H 
ATOM    143  H40 UNL A   1      26.428  21.862  13.371  1.00  0.00    +0.000 H 
ATOM     96  C69 UNL A   1      26.022  21.635  12.407  1.00  0.00    +0.000 C 
ENDBRANCH   95   96
ENDBRANCH   94   95
ENDBRANCH   90   91
ENDBRANCH   10   86
ENDBRANCH   11   10
ENDBRANCH   13   11
ENDBRANCH   14   13
ENDBRANCH   15   14
ENDBRANCH   16   15
ENDBRANCH   17   16
ENDBRANCH   18   17
ENDBRANCH   19   18
ENDBRANCH   20   19
ENDBRANCH   21   20
ENDBRANCH   23   21
ENDBRANCH   27   26
BRANCH   31   32
ATOM     33  C25 UNL A   1      17.797  21.589   1.785  1.00  0.00    +0.000 C 
ATOM     34  F1  UNL A   1      16.960  20.577   1.510  1.00  0.00    +0.000 F 
ATOM     35  C26 UNL A   1      18.431  22.240   0.730  1.00  0.00    +0.000 C 
ATOM     36  F2  UNL A   1      18.208  21.845  -0.531  1.00  0.00    +0.000 F 
ATOM     37  C27 UNL A   1      19.303  23.287   0.983  1.00  0.00    +0.000 C 
ATOM     38  F3  UNL A   1      19.908  23.918  -0.034  1.00  0.00    +0.000 F 
ATOM     39  C28 UNL A   1      19.555  23.678   2.290  1.00  0.00    +0.000 C 
ATOM     40  F4  UNL A   1      20.387  24.698   2.534  1.00  0.00    +0.000 F 
ATOM     41  C29 UNL A   1      18.944  23.010   3.348  1.00  0.00    +0.000 C 
ATOM     42  F5  UNL A   1      19.220  23.401   4.601  1.00  0.00    +0.000 F 
ATOM     32  C24 UNL A   1      18.052  21.951   3.116  1.00  0.00    +0.000 C 
ENDBRANCH   31   32
BRANCH   48   49
ATOM     49  C35 UNL A   1      12.159  22.844   7.161  1.00  0.00    +0.000 C 
ATOM     50  C36 UNL A   1      12.260  24.044   7.881  1.00  0.00    +0.000 C 
ATOM     51  F6  UNL A   1      13.376  24.326   8.568  1.00  0.00    +0.000 F 
ATOM     52  C37 UNL A   1      11.198  24.943   7.921  1.00  0.00    +0.000 C 
ATOM     53  F7  UNL A   1      11.302  26.066   8.646  1.00  0.00    +0.000 F 
ATOM     54  C38 UNL A   1      10.031  24.677   7.221  1.00  0.00    +0.000 C 
ATOM     55  F8  UNL A   1       9.016  25.551   7.251  1.00  0.00    +0.000 F 
ATOM     56  C39 UNL A   1       9.914  23.501   6.494  1.00  0.00    +0.000 C 
ATOM     57  F9  UNL A   1       8.792  23.248   5.806  1.00  0.00    +0.000 F 
ATOM     58  C40 UNL A   1      10.963  22.587   6.474  1.00  0.00    +0.000 C 
ATOM     59  F10 UNL A   1      10.819  21.456   5.767  1.00  0.00    +0.000 F 
ENDBRANCH   48   49
BRANCH   63   64
ATOM     65  C45 UNL A   1      12.978  16.268  10.771  1.00  0.00    +0.000 C 
ATOM     66  F11 UNL A   1      12.552  15.933   9.544  1.00  0.00    +0.000 F 
ATOM     67  C46 UNL A   1      12.406  15.645  11.877  1.00  0.00    +0.000 C 
ATOM     68  F12 UNL A   1      11.443  14.730  11.705  1.00  0.00    +0.000 F 
ATOM     69  C47 UNL A   1      12.822  15.980  13.157  1.00  0.00    +0.000 C 
ATOM     70  F13 UNL A   1      12.277  15.376  14.221  1.00  0.00    +0.000 F 
ATOM     71  C48 UNL A   1      13.801  16.947  13.332  1.00  0.00    +0.000 C 
ATOM     72  F14 UNL A   1      14.218  17.262  14.565  1.00  0.00    +0.000 F 
ATOM     73  C49 UNL A   1      14.354  17.590  12.227  1.00  0.00    +0.000 C 
ATOM     74  F15 UNL A   1      15.291  18.529  12.426  1.00  0.00    +0.000 F 
ATOM     64  C44 UNL A   1      13.957  17.260  10.923  1.00  0.00    +0.000 C 
ENDBRANCH   63   64
TORSDOF 23
ENDMDL
MODEL 8
REMARK VINA RESULT:     -10.3     38.691     43.174
ROOT
ATOM    129  H26 UNL A   1      16.074  47.232   1.187  1.00  0.00    +0.000 H 
ATOM    130  H27 UNL A   1      14.972  47.326   3.473  1.00  0.00    +0.000 H 
ATOM    131  H28 UNL A   1      15.880  51.220   2.337  1.00  0.00    +0.000 H 
ATOM    132  H29 UNL A   1      17.633  50.907  -2.368  1.00  0.00    +0.000 H 
ATOM    133  H30 UNL A   1      17.891  53.453  -2.305  1.00  0.00    +0.000 H 
ATOM    134  H31 UNL A   1      13.652  53.741   6.800  1.00  0.00    +0.000 H 
ATOM    135  H32 UNL A   1      13.732  51.184   6.918  1.00  0.00    +0.000 H 
ATOM     27  C20 UNL A   1      14.679  49.959   4.528  1.00  0.00    +0.000 C 
ATOM     28  C21 UNL A   1      14.614  51.426   4.842  1.00  0.00    +0.000 C 
ATOM     29  N3  UNL A   1      14.973  52.447   4.106  1.00  0.00    +0.000 N 
ATOM     30  C22 UNL A   1      14.664  53.576   4.851  1.00  0.00    +0.000 C 
ATOM     31  C23 UNL A   1      14.895  54.875   4.547  1.00  0.00    +0.000 C 
ATOM     43  C30 UNL A   1      15.530  55.323   3.337  1.00  0.00    +0.000 C 
ATOM     44  C31 UNL A   1      15.872  56.612   2.967  1.00  0.00    +0.000 C 
ATOM     45  C32 UNL A   1      16.417  56.568   1.679  1.00  0.00    +0.000 C 
ATOM     46  C33 UNL A   1      16.460  55.246   1.266  1.00  0.00    +0.000 C 
ATOM     47  N4  UNL A   1      15.915  54.493   2.294  1.00  0.00    +0.000 N 
ATOM     48  C34 UNL A   1      16.951  54.710   0.022  1.00  0.00    +0.000 C 
ATOM     60  C41 UNL A   1      17.005  53.393  -0.290  1.00  0.00    +0.000 C 
ATOM     61  N5  UNL A   1      16.619  52.299   0.473  1.00  0.00    +0.000 N 
ATOM     62  C42 UNL A   1      16.854  51.243  -0.266  1.00  0.00    +0.000 C 
ATOM     63  C43 UNL A   1      16.642  49.790   0.061  1.00  0.00    +0.000 C 
ATOM     75  C50 UNL A   1      16.145  49.453   1.267  1.00  0.00    +0.000 C 
ATOM     76  C51 UNL A   1      15.867  48.094   1.717  1.00  0.00    +0.000 C 
ATOM     77  C52 UNL A   1      15.297  48.142   2.931  1.00  0.00    +0.000 C 
ATOM     78  C53 UNL A   1      15.213  49.537   3.365  1.00  0.00    +0.000 C 
ATOM     79  N6  UNL A   1      15.766  50.242   2.326  1.00  0.00    +0.000 N 
ATOM     80  C54 UNL A   1      17.398  51.550  -1.597  1.00  0.00    +0.000 C 
ATOM     81  C55 UNL A   1      17.503  52.872  -1.546  1.00  0.00    +0.000 C 
ATOM     82  C56 UNL A   1      14.044  53.118   6.076  1.00  0.00    +0.000 C 
ATOM     83  C57 UNL A   1      14.047  51.795   6.147  1.00  0.00    +0.000 C 
ATOM    126  H23 UNL A   1      15.746  57.460   3.542  1.00  0.00    +0.000 H 
ATOM    127  H24 UNL A   1      16.734  57.382   1.130  1.00  0.00    +0.000 H 
ATOM    128  H25 UNL A   1      15.816  53.514   2.285  1.00  0.00    +0.000 H 
ENDROOT
BRANCH   27   26
ATOM    136  H33 UNL A   1      12.151  49.100   4.565  1.00  0.00    +0.000 H 
ATOM    137  H34 UNL A   1      11.119  47.478   6.040  1.00  0.00    +0.000 H 
ATOM     84  C58 UNL A   1      12.714  48.634   5.293  1.00  0.00    +0.000 C 
ATOM     85  C59 UNL A   1      12.130  47.674   6.113  1.00  0.00    +0.000 C 
ATOM     23  C16 UNL A   1      12.917  46.977   7.034  1.00  0.00    +0.000 C 
ATOM     24  C17 UNL A   1      14.251  47.338   7.240  1.00  0.00    +0.000 C 
ATOM     25  C18 UNL A   1      14.820  48.348   6.460  1.00  0.00    +0.000 C 
ATOM     26  C19 UNL A   1      14.068  48.971   5.451  1.00  0.00    +0.000 C 
ATOM    124  H21 UNL A   1      14.811  46.862   7.962  1.00  0.00    +0.000 H 
ATOM    125  H22 UNL A   1      15.796  48.637   6.627  1.00  0.00    +0.000 H 
BRANCH   23   21
ATOM     21  C15 UNL A   1      12.353  45.839   7.790  1.00  0.00    +0.000 C 
ATOM     22  O4  UNL A   1      11.920  44.860   7.194  1.00  0.00    +0.000 O 
BRANCH   21   20
ATOM    123  H20 UNL A   1      12.440  45.041   9.631  1.00  0.00    +0.000 H 
ATOM     20  N2  UNL A   1      12.309  45.897   9.163  1.00  0.00    +0.000 N 
BRANCH   20   19
ATOM    121  H18 UNL A   1      13.042  47.396  10.383  1.00  0.00    +0.000 H 
ATOM    122  H19 UNL A   1      11.615  47.813   9.430  1.00  0.00    +0.000 H 
ATOM     19  C14 UNL A   1      12.095  47.058  10.015  1.00  0.00    +0.000 C 
BRANCH   19   18
ATOM     18  C13 UNL A   1      11.193  46.735  11.203  1.00  0.00    +0.000 C 
ATOM    119  H16 UNL A   1      11.234  45.679  11.377  1.00  0.00    +0.000 H 
ATOM    120  H17 UNL A   1      11.557  47.306  12.030  1.00  0.00    +0.000 H 
BRANCH   18   17
ATOM     17  C12 UNL A   1       9.728  47.132  11.004  1.00  0.00    +0.000 C 
ATOM    117  H14 UNL A   1       9.119  46.289  11.257  1.00  0.00    +0.000 H 
ATOM    118  H15 UNL A   1       9.561  47.980  11.634  1.00  0.00    +0.000 H 
BRANCH   17   16
ATOM    115  H12 UNL A   1       9.137  48.618   9.606  1.00  0.00    +0.000 H 
ATOM    116  H13 UNL A   1      10.211  47.336   8.970  1.00  0.00    +0.000 H 
ATOM     16  C11 UNL A   1       9.365  47.573   9.581  1.00  0.00    +0.000 C 
BRANCH   16   15
ATOM    113  H10 UNL A   1       7.607  46.374   9.738  1.00  0.00    +0.000 H 
ATOM    114  H11 UNL A   1       7.593  47.570   8.424  1.00  0.00    +0.000 H 
ATOM     15  C10 UNL A   1       8.167  46.839   8.955  1.00  0.00    +0.000 C 
BRANCH   15   14
ATOM     14  C9  UNL A   1       8.571  45.761   7.943  1.00  0.00    +0.000 C 
ATOM    111  H8  UNL A   1       9.639  45.691   7.906  1.00  0.00    +0.000 H 
ATOM    112  H9  UNL A   1       8.159  44.821   8.243  1.00  0.00    +0.000 H 
BRANCH   14   13
ATOM     13  N1  UNL A   1       8.065  46.109   6.630  1.00  0.00    +0.000 N 
ATOM    110  H7  UNL A   1       7.098  45.955   6.537  1.00  0.00    +0.000 H 
BRANCH   13   11
ATOM     11  C8  UNL A   1       8.638  46.602   5.501  1.00  0.00    +0.000 C 
ATOM     12  O3  UNL A   1       9.508  45.893   4.989  1.00  0.00    +0.000 O 
BRANCH   11   10
ATOM     10  C7  UNL A   1       8.346  47.980   4.947  1.00  0.00    +0.000 C 
BRANCH   10    9
ATOM      9  C6  UNL A   1       8.287  48.233   3.618  1.00  0.00    +0.000 C 
ATOM    109  H6  UNL A   1       7.517  47.768   3.113  1.00  0.00    +0.000 H 
BRANCH    9    8
ATOM      5  C2  UNL A   1      10.895  50.506   1.077  1.00  0.00    +0.000 C 
ATOM    102  C73 UNL A   1      10.412  48.544   2.400  1.00  0.00    +0.000 C 
ATOM      6  C3  UNL A   1       9.692  51.081   1.487  1.00  0.00    +0.000 C 
ATOM    103  C74 UNL A   1      11.273  49.249   1.551  1.00  0.00    +0.000 C 
ATOM      7  C4  UNL A   1       8.847  50.375   2.355  1.00  0.00    +0.000 C 
ATOM      8  C5  UNL A   1       9.173  49.082   2.786  1.00  0.00    +0.000 C 
ATOM    107  H4  UNL A   1       9.425  52.019   1.153  1.00  0.00    +0.000 H 
ATOM    108  H5  UNL A   1       7.974  50.815   2.683  1.00  0.00    +0.000 H 
ATOM    149  H46 UNL A   1      10.693  47.615   2.749  1.00  0.00    +0.000 H 
ATOM    150  H47 UNL A   1      12.181  48.842   1.277  1.00  0.00    +0.000 H 
BRANCH    5    2
ATOM      2  S1  UNL A   1      11.972  51.389  -0.030  1.00  0.00    +0.000 S 
ATOM      3  O1  UNL A   1      12.066  50.612  -1.252  1.00  0.00    +0.000 O 
ATOM      4  O2  UNL A   1      13.157  51.728   0.733  1.00  0.00    +0.000 O 
BRANCH    2    1
ATOM      1  C1  UNL A   1      11.113  52.889  -0.425  1.00  0.00    +0.000 C 
ATOM    106  H3  UNL A   1      10.790  53.364   0.478  1.00  0.00    +0.000 H 
ATOM    105  H2  UNL A   1      11.767  53.546  -0.959  1.00  0.00    +0.000 H 
ATOM    104  H1  UNL A   1      10.261  52.664  -1.032  1.00  0.00    +0.000 H 
ENDBRANCH    2    1
ENDBRANCH    5    2
ENDBRANCH    9    8
ENDBRANCH   10    9
BRANCH   10   86
ATOM    101  C72 UNL A   1       9.455  49.704   6.427  1.00  0.00    +0.000 C 
ATOM    138  H35 UNL A   1       6.190  49.032   6.105  1.00  0.00    +0.000 H 
ATOM    139  H36 UNL A   1       6.049  50.673   7.876  1.00  0.00    +0.000 H 
ATOM    140  H37 UNL A   1       8.073  51.610   8.814  1.00  0.00    +0.000 H 
ATOM    148  H45 UNL A   1      10.366  49.500   5.986  1.00  0.00    +0.000 H 
ATOM     86  C60 UNL A   1       8.295  49.095   5.930  1.00  0.00    +0.000 C 
ATOM     87  C61 UNL A   1       7.052  49.460   6.474  1.00  0.00    +0.000 C 
ATOM     88  C62 UNL A   1       6.970  50.391   7.506  1.00  0.00    +0.000 C 
ATOM     89  C63 UNL A   1       8.135  50.938   8.034  1.00  0.00    +0.000 C 
ATOM     90  C64 UNL A   1       9.395  50.588   7.520  1.00  0.00    +0.000 C 
BRANCH   90   91
ATOM     99  C70 UNL A   1      12.759  50.543   9.259  1.00  0.00    +0.000 C 
ATOM    100  C71 UNL A   1      11.630  50.117   8.556  1.00  0.00    +0.000 C 
ATOM    141  H38 UNL A   1      10.063  53.064   8.264  1.00  0.00    +0.000 H 
ATOM    142  H39 UNL A   1      12.008  53.810   9.502  1.00  0.00    +0.000 H 
ATOM    146  H43 UNL A   1      13.492  49.867   9.528  1.00  0.00    +0.000 H 
ATOM    147  H44 UNL A   1      11.533  49.120   8.304  1.00  0.00    +0.000 H 
ATOM     91  C65 UNL A   1      10.627  51.026   8.189  1.00  0.00    +0.000 C 
ATOM     92  C66 UNL A   1      10.787  52.382   8.537  1.00  0.00    +0.000 C 
ATOM     93  C67 UNL A   1      11.907  52.816   9.243  1.00  0.00    +0.000 C 
ATOM     94  C68 UNL A   1      12.889  51.891   9.597  1.00  0.00    +0.000 C 
BRANCH   94   95
ATOM     97  O5  UNL A   1      14.237  51.733  11.805  1.00  0.00    +0.000 O 
ATOM     98  O6  UNL A   1      15.452  52.392   9.691  1.00  0.00    +0.000 O 
ATOM     95  S2  UNL A   1      14.281  52.450  10.547  1.00  0.00    +0.000 S 
BRANCH   95   96
ATOM    145  H42 UNL A   1      13.791  54.311  11.909  1.00  0.00    +0.000 H 
ATOM    144  H41 UNL A   1      14.730  54.764  10.506  1.00  0.00    +0.000 H 
ATOM    143  H40 UNL A   1      13.021  54.432  10.345  1.00  0.00    +0.000 H 
ATOM     96  C69 UNL A   1      13.919  54.159  10.857  1.00  0.00    +0.000 C 
ENDBRANCH   95   96
ENDBRANCH   94   95
ENDBRANCH   90   91
ENDBRANCH   10   86
ENDBRANCH   11   10
ENDBRANCH   13   11
ENDBRANCH   14   13
ENDBRANCH   15   14
ENDBRANCH   16   15
ENDBRANCH   17   16
ENDBRANCH   18   17
ENDBRANCH   19   18
ENDBRANCH   20   19
ENDBRANCH   21   20
ENDBRANCH   23   21
ENDBRANCH   27   26
BRANCH   31   32
ATOM     33  C25 UNL A   1      15.385  56.649   6.292  1.00  0.00    +0.000 C 
ATOM     34  F1  UNL A   1      16.699  56.408   6.165  1.00  0.00    +0.000 F 
ATOM     35  C26 UNL A   1      14.965  57.613   7.204  1.00  0.00    +0.000 C 
ATOM     36  F2  UNL A   1      15.868  58.273   7.942  1.00  0.00    +0.000 F 
ATOM     37  C27 UNL A   1      13.614  57.883   7.359  1.00  0.00    +0.000 C 
ATOM     38  F3  UNL A   1      13.211  58.817   8.232  1.00  0.00    +0.000 F 
ATOM     39  C28 UNL A   1      12.679  57.180   6.613  1.00  0.00    +0.000 C 
ATOM     40  F4  UNL A   1      11.374  57.449   6.753  1.00  0.00    +0.000 F 
ATOM     41  C29 UNL A   1      13.095  56.195   5.722  1.00  0.00    +0.000 C 
ATOM     42  F5  UNL A   1      12.165  55.521   5.026  1.00  0.00    +0.000 F 
ATOM     32  C24 UNL A   1      14.457  55.909   5.543  1.00  0.00    +0.000 C 
ENDBRANCH   31   32
BRANCH   48   49
ATOM     49  C35 UNL A   1      17.458  55.682  -1.002  1.00  0.00    +0.000 C 
ATOM     50  C36 UNL A   1      18.810  56.054  -1.051  1.00  0.00    +0.000 C 
ATOM     51  F6  UNL A   1      19.669  55.596  -0.129  1.00  0.00    +0.000 F 
ATOM     52  C37 UNL A   1      19.276  56.924  -2.032  1.00  0.00    +0.000 C 
ATOM     53  F7  UNL A   1      20.563  57.297  -2.038  1.00  0.00    +0.000 F 
ATOM     54  C38 UNL A   1      18.409  57.414  -2.998  1.00  0.00    +0.000 C 
ATOM     55  F8  UNL A   1      18.863  58.242  -3.950  1.00  0.00    +0.000 F 
ATOM     56  C39 UNL A   1      17.071  57.051  -2.974  1.00  0.00    +0.000 C 
ATOM     57  F9  UNL A   1      16.235  57.513  -3.915  1.00  0.00    +0.000 F 
ATOM     58  C40 UNL A   1      16.596  56.203  -1.978  1.00  0.00    +0.000 C 
ATOM     59  F10 UNL A   1      15.296  55.873  -1.978  1.00  0.00    +0.000 F 
ENDBRANCH   48   49
BRANCH   63   64
ATOM     65  C45 UNL A   1      18.256  48.140  -0.927  1.00  0.00    +0.000 C 
ATOM     66  F11 UNL A   1      19.186  48.551  -0.052  1.00  0.00    +0.000 F 
ATOM     67  C46 UNL A   1      18.589  47.155  -1.853  1.00  0.00    +0.000 C 
ATOM     68  F12 UNL A   1      19.824  46.637  -1.862  1.00  0.00    +0.000 F 
ATOM     69  C47 UNL A   1      17.649  46.719  -2.775  1.00  0.00    +0.000 C 
ATOM     70  F13 UNL A   1      17.967  45.767  -3.661  1.00  0.00    +0.000 F 
ATOM     71  C48 UNL A   1      16.378  47.276  -2.779  1.00  0.00    +0.000 C 
ATOM     72  F14 UNL A   1      15.462  46.847  -3.656  1.00  0.00    +0.000 F 
ATOM     73  C49 UNL A   1      16.053  48.281  -1.871  1.00  0.00    +0.000 C 
ATOM     74  F15 UNL A   1      14.820  48.809  -1.904  1.00  0.00    +0.000 F 
ATOM     64  C44 UNL A   1      16.983  48.729  -0.922  1.00  0.00    +0.000 C 
ENDBRANCH   63   64
TORSDOF 23
ENDMDL
MODEL 9
REMARK VINA RESULT:     -10.3     37.519     43.054
ROOT
ATOM    129  H26 UNL A   1      17.199  56.895   0.926  1.00  0.00    +0.000 H 
ATOM    130  H27 UNL A   1      15.731  56.786   2.995  1.00  0.00    +0.000 H 
ATOM    131  H28 UNL A   1      15.684  53.036   1.203  1.00  0.00    +0.000 H 
ATOM    132  H29 UNL A   1      18.972  53.287  -2.597  1.00  0.00    +0.000 H 
ATOM    133  H30 UNL A   1      18.404  50.838  -3.081  1.00  0.00    +0.000 H 
ATOM    134  H31 UNL A   1      12.495  50.516   5.039  1.00  0.00    +0.000 H 
ATOM    135  H32 UNL A   1      12.747  53.048   5.323  1.00  0.00    +0.000 H 
ATOM     27  C20 UNL A   1      14.553  54.232   3.467  1.00  0.00    +0.000 C 
ATOM     28  C21 UNL A   1      14.086  52.806   3.509  1.00  0.00    +0.000 C 
ATOM     29  N3  UNL A   1      14.397  51.809   2.718  1.00  0.00    +0.000 N 
ATOM     30  C22 UNL A   1      13.726  50.704   3.223  1.00  0.00    +0.000 C 
ATOM     31  C23 UNL A   1      13.679  49.446   2.724  1.00  0.00    +0.000 C 
ATOM     43  C30 UNL A   1      14.357  49.025   1.527  1.00  0.00    +0.000 C 
ATOM     44  C31 UNL A   1      14.316  47.791   0.901  1.00  0.00    +0.000 C 
ATOM     45  C32 UNL A   1      15.178  47.830  -0.200  1.00  0.00    +0.000 C 
ATOM     46  C33 UNL A   1      15.719  49.103  -0.289  1.00  0.00    +0.000 C 
ATOM     47  N4  UNL A   1      15.204  49.826   0.775  1.00  0.00    +0.000 N 
ATOM     48  C34 UNL A   1      16.645  49.619  -1.265  1.00  0.00    +0.000 C 
ATOM     60  C41 UNL A   1      17.091  50.897  -1.314  1.00  0.00    +0.000 C 
ATOM     61  N5  UNL A   1      16.781  51.962  -0.479  1.00  0.00    +0.000 N 
ATOM     62  C42 UNL A   1      17.471  52.983  -0.925  1.00  0.00    +0.000 C 
ATOM     63  C43 UNL A   1      17.512  54.397  -0.413  1.00  0.00    +0.000 C 
ATOM     75  C50 UNL A   1      16.756  54.733   0.650  1.00  0.00    +0.000 C 
ATOM     76  C51 UNL A   1      16.707  56.054   1.268  1.00  0.00    +0.000 C 
ATOM     77  C52 UNL A   1      15.919  56.000   2.354  1.00  0.00    +0.000 C 
ATOM     78  C53 UNL A   1      15.370  54.650   2.480  1.00  0.00    +0.000 C 
ATOM     79  N6  UNL A   1      15.899  53.974   1.409  1.00  0.00    +0.000 N 
ATOM     80  C54 UNL A   1      18.317  52.674  -2.087  1.00  0.00    +0.000 C 
ATOM     81  C55 UNL A   1      18.020  51.399  -2.304  1.00  0.00    +0.000 C 
ATOM     82  C56 UNL A   1      13.030  51.140   4.416  1.00  0.00    +0.000 C 
ATOM     83  C57 UNL A   1      13.170  52.444   4.600  1.00  0.00    +0.000 C 
ATOM    126  H23 UNL A   1      13.748  46.981   1.197  1.00  0.00    +0.000 H 
ATOM    127  H24 UNL A   1      15.378  47.044  -0.838  1.00  0.00    +0.000 H 
ATOM    128  H25 UNL A   1      15.408  50.769   0.969  1.00  0.00    +0.000 H 
ENDROOT
BRANCH   27   26
ATOM    136  H33 UNL A   1      12.304  55.643   3.745  1.00  0.00    +0.000 H 
ATOM    137  H34 UNL A   1      11.674  57.162   5.525  1.00  0.00    +0.000 H 
ATOM     84  C58 UNL A   1      12.945  55.802   4.538  1.00  0.00    +0.000 C 
ATOM     85  C59 UNL A   1      12.565  56.643   5.578  1.00  0.00    +0.000 C 
ATOM     23  C16 UNL A   1      13.392  56.782   6.696  1.00  0.00    +0.000 C 
ATOM     24  C17 UNL A   1      14.662  56.199   6.711  1.00  0.00    +0.000 C 
ATOM     25  C18 UNL A   1      15.070  55.406   5.636  1.00  0.00    +0.000 C 
ATOM     26  C19 UNL A   1      14.196  55.166   4.563  1.00  0.00    +0.000 C 
ATOM    124  H21 UNL A   1      15.294  56.353   7.511  1.00  0.00    +0.000 H 
ATOM    125  H22 UNL A   1      16.016  54.996   5.630  1.00  0.00    +0.000 H 
BRANCH   23   21
ATOM     21  C15 UNL A   1      12.930  57.533   7.882  1.00  0.00    +0.000 C 
ATOM     22  O4  UNL A   1      13.002  58.757   7.900  1.00  0.00    +0.000 O 
BRANCH   21   20
ATOM    123  H20 UNL A   1      12.421  57.341   9.815  1.00  0.00    +0.000 H 
ATOM     20  N2  UNL A   1      12.434  56.846   8.964  1.00  0.00    +0.000 N 
BRANCH   20   19
ATOM    121  H18 UNL A   1      11.140  55.436   9.745  1.00  0.00    +0.000 H 
ATOM    122  H19 UNL A   1      11.563  55.227   8.043  1.00  0.00    +0.000 H 
ATOM     19  C14 UNL A   1      11.924  55.484   9.017  1.00  0.00    +0.000 C 
BRANCH   19   18
ATOM     18  C13 UNL A   1      13.011  54.482   9.397  1.00  0.00    +0.000 C 
ATOM    119  H16 UNL A   1      13.931  55.016   9.515  1.00  0.00    +0.000 H 
ATOM    120  H17 UNL A   1      12.689  54.006  10.299  1.00  0.00    +0.000 H 
BRANCH   18   17
ATOM     17  C12 UNL A   1      13.229  53.372   8.367  1.00  0.00    +0.000 C 
ATOM    117  H14 UNL A   1      12.473  53.464   7.615  1.00  0.00    +0.000 H 
ATOM    118  H15 UNL A   1      14.221  53.505   7.989  1.00  0.00    +0.000 H 
BRANCH   17   16
ATOM    115  H12 UNL A   1      13.907  51.864   9.702  1.00  0.00    +0.000 H 
ATOM    116  H13 UNL A   1      12.169  51.805   9.280  1.00  0.00    +0.000 H 
ATOM     16  C11 UNL A   1      13.170  51.947   8.930  1.00  0.00    +0.000 C 
BRANCH   16   15
ATOM    113  H10 UNL A   1      12.957  49.934   8.256  1.00  0.00    +0.000 H 
ATOM    114  H11 UNL A   1      13.024  51.159   6.971  1.00  0.00    +0.000 H 
ATOM     15  C10 UNL A   1      13.427  50.828   7.906  1.00  0.00    +0.000 C 
BRANCH   15   14
ATOM     14  C9  UNL A   1      14.914  50.538   7.677  1.00  0.00    +0.000 C 
ATOM    111  H8  UNL A   1      15.180  50.810   6.677  1.00  0.00    +0.000 H 
ATOM    112  H9  UNL A   1      15.496  51.106   8.372  1.00  0.00    +0.000 H 
BRANCH   14   13
ATOM     13  N1  UNL A   1      15.173  49.126   7.877  1.00  0.00    +0.000 N 
ATOM    110  H7  UNL A   1      15.164  48.610   7.039  1.00  0.00    +0.000 H 
BRANCH   13   11
ATOM     11  C8  UNL A   1      15.425  48.361   8.971  1.00  0.00    +0.000 C 
ATOM     12  O3  UNL A   1      16.222  47.435   8.804  1.00  0.00    +0.000 O 
BRANCH   11   10
ATOM     10  C7  UNL A   1      14.702  48.523  10.291  1.00  0.00    +0.000 C 
BRANCH   10    9
ATOM      9  C6  UNL A   1      13.634  47.764  10.635  1.00  0.00    +0.000 C 
ATOM    109  H6  UNL A   1      13.717  47.266  11.534  1.00  0.00    +0.000 H 
BRANCH    9    8
ATOM      5  C2  UNL A   1       9.912  46.960   8.654  1.00  0.00    +0.000 C 
ATOM    102  C73 UNL A   1      12.016  46.225   9.582  1.00  0.00    +0.000 C 
ATOM      6  C3  UNL A   1      10.258  48.287   8.917  1.00  0.00    +0.000 C 
ATOM    103  C74 UNL A   1      10.798  45.928   8.961  1.00  0.00    +0.000 C 
ATOM      7  C4  UNL A   1      11.490  48.575   9.520  1.00  0.00    +0.000 C 
ATOM      8  C5  UNL A   1      12.364  47.548   9.901  1.00  0.00    +0.000 C 
ATOM    107  H4  UNL A   1       9.610  49.050   8.670  1.00  0.00    +0.000 H 
ATOM    108  H5  UNL A   1      11.757  49.557   9.684  1.00  0.00    +0.000 H 
ATOM    149  H46 UNL A   1      12.670  45.460   9.808  1.00  0.00    +0.000 H 
ATOM    150  H47 UNL A   1      10.557  44.951   8.731  1.00  0.00    +0.000 H 
BRANCH    5    2
ATOM      2  S1  UNL A   1       8.348  46.582   7.896  1.00  0.00    +0.000 S 
ATOM      3  O1  UNL A   1       8.358  45.169   7.567  1.00  0.00    +0.000 O 
ATOM      4  O2  UNL A   1       8.134  47.586   6.872  1.00  0.00    +0.000 O 
BRANCH    2    1
ATOM      1  C1  UNL A   1       7.137  46.818   9.171  1.00  0.00    +0.000 C 
ATOM    106  H3  UNL A   1       7.236  46.045   9.905  1.00  0.00    +0.000 H 
ATOM    105  H2  UNL A   1       7.287  47.771   9.634  1.00  0.00    +0.000 H 
ATOM    104  H1  UNL A   1       6.157  46.779   8.744  1.00  0.00    +0.000 H 
ENDBRANCH    2    1
ENDBRANCH    5    2
ENDBRANCH    9    8
ENDBRANCH   10    9
BRANCH   10   86
ATOM    101  C72 UNL A   1      14.191  50.391  11.916  1.00  0.00    +0.000 C 
ATOM    138  H35 UNL A   1      17.121  49.622  10.489  1.00  0.00    +0.000 H 
ATOM    139  H36 UNL A   1      17.800  51.632  11.651  1.00  0.00    +0.000 H 
ATOM    140  H37 UNL A   1      16.164  52.924  12.881  1.00  0.00    +0.000 H 
ATOM    148  H45 UNL A   1      13.237  50.016  12.050  1.00  0.00    +0.000 H 
ATOM     86  C60 UNL A   1      15.110  49.678  11.136  1.00  0.00    +0.000 C 
ATOM     87  C61 UNL A   1      16.430  50.147  11.047  1.00  0.00    +0.000 C 
ATOM     88  C62 UNL A   1      16.820  51.314  11.699  1.00  0.00    +0.000 C 
ATOM     89  C63 UNL A   1      15.880  52.047  12.417  1.00  0.00    +0.000 C 
ATOM     90  C64 UNL A   1      14.548  51.611  12.519  1.00  0.00    +0.000 C 
BRANCH   90   91
ATOM     99  C70 UNL A   1      12.507  54.654  13.480  1.00  0.00    +0.000 C 
ATOM    100  C71 UNL A   1      13.443  53.841  12.837  1.00  0.00    +0.000 C 
ATOM    141  H38 UNL A   1      12.666  50.919  14.281  1.00  0.00    +0.000 H 
ATOM    142  H39 UNL A   1      11.053  52.325  15.418  1.00  0.00    +0.000 H 
ATOM    146  H43 UNL A   1      12.458  55.662  13.265  1.00  0.00    +0.000 H 
ATOM    147  H44 UNL A   1      14.086  54.254  12.142  1.00  0.00    +0.000 H 
ATOM     91  C65 UNL A   1      13.520  52.469  13.123  1.00  0.00    +0.000 C 
ATOM     92  C66 UNL A   1      12.628  51.928  14.068  1.00  0.00    +0.000 C 
ATOM     93  C67 UNL A   1      11.695  52.732  14.720  1.00  0.00    +0.000 C 
ATOM     94  C68 UNL A   1      11.639  54.092  14.417  1.00  0.00    +0.000 C 
BRANCH   94   95
ATOM     97  O5  UNL A   1       9.325  55.258  14.439  1.00  0.00    +0.000 O 
ATOM     98  O6  UNL A   1      10.358  54.581  16.642  1.00  0.00    +0.000 O 
ATOM     95  S2  UNL A   1      10.483  55.113  15.298  1.00  0.00    +0.000 S 
BRANCH   95   96
ATOM    145  H42 UNL A   1      11.909  56.829  14.537  1.00  0.00    +0.000 H 
ATOM    144  H41 UNL A   1      10.577  57.462  15.475  1.00  0.00    +0.000 H 
ATOM    143  H40 UNL A   1      11.928  56.697  16.279  1.00  0.00    +0.000 H 
ATOM     96  C69 UNL A   1      11.306  56.680  15.408  1.00  0.00    +0.000 C 
ENDBRANCH   95   96
ENDBRANCH   94   95
ENDBRANCH   90   91
ENDBRANCH   10   86
ENDBRANCH   11   10
ENDBRANCH   13   11
ENDBRANCH   14   13
ENDBRANCH   15   14
ENDBRANCH   16   15
ENDBRANCH   17   16
ENDBRANCH   18   17
ENDBRANCH   19   18
ENDBRANCH   20   19
ENDBRANCH   21   20
ENDBRANCH   23   21
ENDBRANCH   27   26
BRANCH   31   32
ATOM     33  C25 UNL A   1      13.360  47.806   4.630  1.00  0.00    +0.000 C 
ATOM     34  F1  UNL A   1      14.601  48.072   5.065  1.00  0.00    +0.000 F 
ATOM     35  C26 UNL A   1      12.592  46.875   5.324  1.00  0.00    +0.000 C 
ATOM     36  F2  UNL A   1      13.101  46.255   6.398  1.00  0.00    +0.000 F 
ATOM     37  C27 UNL A   1      11.306  46.578   4.899  1.00  0.00    +0.000 C 
ATOM     38  F3  UNL A   1      10.565  45.686   5.572  1.00  0.00    +0.000 F 
ATOM     39  C28 UNL A   1      10.790  47.200   3.771  1.00  0.00    +0.000 C 
ATOM     40  F4  UNL A   1       9.543  46.923   3.367  1.00  0.00    +0.000 F 
ATOM     41  C29 UNL A   1      11.567  48.110   3.059  1.00  0.00    +0.000 C 
ATOM     42  F5  UNL A   1      11.045  48.683   1.964  1.00  0.00    +0.000 F 
ATOM     32  C24 UNL A   1      12.868  48.432   3.475  1.00  0.00    +0.000 C 
ENDBRANCH   31   32
BRANCH   48   49
ATOM     49  C35 UNL A   1      17.140  48.675  -2.320  1.00  0.00    +0.000 C 
ATOM     50  C36 UNL A   1      18.281  47.884  -2.116  1.00  0.00    +0.000 C 
ATOM     51  F6  UNL A   1      18.996  48.009  -0.990  1.00  0.00    +0.000 F 
ATOM     52  C37 UNL A   1      18.705  46.981  -3.087  1.00  0.00    +0.000 C 
ATOM     53  F7  UNL A   1      19.819  46.261  -2.888  1.00  0.00    +0.000 F 
ATOM     54  C38 UNL A   1      17.985  46.830  -4.262  1.00  0.00    +0.000 C 
ATOM     55  F8  UNL A   1      18.389  45.951  -5.190  1.00  0.00    +0.000 F 
ATOM     56  C39 UNL A   1      16.849  47.596  -4.480  1.00  0.00    +0.000 C 
ATOM     57  F9  UNL A   1      16.144  47.442  -5.609  1.00  0.00    +0.000 F 
ATOM     58  C40 UNL A   1      16.437  48.519  -3.524  1.00  0.00    +0.000 C 
ATOM     59  F10 UNL A   1      15.337  49.249  -3.764  1.00  0.00    +0.000 F 
ENDBRANCH   48   49
BRANCH   63   64
ATOM     65  C45 UNL A   1      17.962  56.021  -2.274  1.00  0.00    +0.000 C 
ATOM     66  F11 UNL A   1      16.809  55.653  -2.852  1.00  0.00    +0.000 F 
ATOM     67  C46 UNL A   1      18.759  56.973  -2.905  1.00  0.00    +0.000 C 
ATOM     68  F12 UNL A   1      18.371  57.500  -4.074  1.00  0.00    +0.000 F 
ATOM     69  C47 UNL A   1      19.960  57.365  -2.332  1.00  0.00    +0.000 C 
ATOM     70  F13 UNL A   1      20.724  58.285  -2.936  1.00  0.00    +0.000 F 
ATOM     71  C48 UNL A   1      20.370  56.797  -1.135  1.00  0.00    +0.000 C 
ATOM     72  F14 UNL A   1      21.521  57.185  -0.570  1.00  0.00    +0.000 F 
ATOM     73  C49 UNL A   1      19.586  55.826  -0.517  1.00  0.00    +0.000 C 
ATOM     74  F15 UNL A   1      20.012  55.286   0.634  1.00  0.00    +0.000 F 
ATOM     64  C44 UNL A   1      18.363  55.422  -1.072  1.00  0.00    +0.000 C 
ENDBRANCH   63   64
TORSDOF 23
ENDMDL
MODEL 10
REMARK VINA RESULT:     -10.2     31.582     34.938
ROOT
ATOM    129  H26 UNL A   1      21.634   1.130  10.461  1.00  0.00    +0.000 H 
ATOM    130  H27 UNL A   1      23.763  -0.211  10.121  1.00  0.00    +0.000 H 
ATOM    131  H28 UNL A   1      24.135   3.332   7.979  1.00  0.00    +0.000 H 
ATOM    132  H29 UNL A   1      20.059   6.056   9.109  1.00  0.00    +0.000 H 
ATOM    133  H30 UNL A   1      21.003   7.870   7.569  1.00  0.00    +0.000 H 
ATOM    134  H31 UNL A   1      29.342   2.449   6.150  1.00  0.00    +0.000 H 
ATOM    135  H32 UNL A   1      28.265   0.472   7.371  1.00  0.00    +0.000 H 
ATOM     27  C20 UNL A   1      25.701   1.062   8.461  1.00  0.00    +0.000 C 
ATOM     28  C21 UNL A   1      26.553   1.943   7.594  1.00  0.00    +0.000 C 
ATOM     29  N3  UNL A   1      26.313   3.152   7.153  1.00  0.00    +0.000 N 
ATOM     30  C22 UNL A   1      27.441   3.522   6.434  1.00  0.00    +0.000 C 
ATOM     31  C23 UNL A   1      27.658   4.662   5.735  1.00  0.00    +0.000 C 
ATOM     43  C30 UNL A   1      26.707   5.735   5.619  1.00  0.00    +0.000 C 
ATOM     44  C31 UNL A   1      26.805   6.899   4.878  1.00  0.00    +0.000 C 
ATOM     45  C32 UNL A   1      25.662   7.669   5.119  1.00  0.00    +0.000 C 
ATOM     46  C33 UNL A   1      24.829   6.962   5.972  1.00  0.00    +0.000 C 
ATOM     47  N4  UNL A   1      25.482   5.776   6.269  1.00  0.00    +0.000 N 
ATOM     48  C34 UNL A   1      23.539   7.345   6.488  1.00  0.00    +0.000 C 
ATOM     60  C41 UNL A   1      22.759   6.574   7.283  1.00  0.00    +0.000 C 
ATOM     61  N5  UNL A   1      23.002   5.296   7.768  1.00  0.00    +0.000 N 
ATOM     62  C42 UNL A   1      21.961   4.984   8.500  1.00  0.00    +0.000 C 
ATOM     63  C43 UNL A   1      21.679   3.713   9.254  1.00  0.00    +0.000 C 
ATOM     75  C50 UNL A   1      22.579   2.711   9.216  1.00  0.00    +0.000 C 
ATOM     76  C51 UNL A   1      22.452   1.435   9.910  1.00  0.00    +0.000 C 
ATOM     77  C52 UNL A   1      23.572   0.719   9.719  1.00  0.00    +0.000 C 
ATOM     78  C53 UNL A   1      24.477   1.470   8.847  1.00  0.00    +0.000 C 
ATOM     79  N6  UNL A   1      23.791   2.628   8.576  1.00  0.00    +0.000 N 
ATOM     80  C54 UNL A   1      20.944   6.042   8.579  1.00  0.00    +0.000 C 
ATOM     81  C55 UNL A   1      21.464   6.974   7.791  1.00  0.00    +0.000 C 
ATOM     82  C56 UNL A   1      28.386   2.431   6.537  1.00  0.00    +0.000 C 
ATOM     83  C57 UNL A   1      27.861   1.405   7.191  1.00  0.00    +0.000 C 
ATOM    126  H23 UNL A   1      27.587   7.155   4.255  1.00  0.00    +0.000 H 
ATOM    127  H24 UNL A   1      25.471   8.604   4.728  1.00  0.00    +0.000 H 
ATOM    128  H25 UNL A   1      25.128   5.068   6.854  1.00  0.00    +0.000 H 
ENDROOT
BRANCH   27   26
ATOM    136  H33 UNL A   1      27.132   0.661  10.679  1.00  0.00    +0.000 H 
ATOM    137  H34 UNL A   1      28.012  -1.416  11.564  1.00  0.00    +0.000 H 
ATOM     84  C58 UNL A   1      26.955  -0.227  10.183  1.00  0.00    +0.000 C 
ATOM     85  C59 UNL A   1      27.427  -1.423  10.713  1.00  0.00    +0.000 C 
ATOM     23  C16 UNL A   1      27.106  -2.632  10.091  1.00  0.00    +0.000 C 
ATOM     24  C17 UNL A   1      26.440  -2.640   8.863  1.00  0.00    +0.000 C 
ATOM     25  C18 UNL A   1      26.023  -1.432   8.297  1.00  0.00    +0.000 C 
ATOM     26  C19 UNL A   1      26.238  -0.221   8.976  1.00  0.00    +0.000 C 
ATOM    124  H21 UNL A   1      26.258  -3.530   8.377  1.00  0.00    +0.000 H 
ATOM    125  H22 UNL A   1      25.556  -1.430   7.377  1.00  0.00    +0.000 H 
BRANCH   23   21
ATOM     21  C15 UNL A   1      27.451  -3.919  10.731  1.00  0.00    +0.000 C 
ATOM     22  O4  UNL A   1      26.566  -4.638  11.180  1.00  0.00    +0.000 O 
BRANCH   21   20
ATOM    123  H20 UNL A   1      29.114  -4.414  11.743  1.00  0.00    +0.000 H 
ATOM     20  N2  UNL A   1      28.770  -4.291  10.828  1.00  0.00    +0.000 N 
BRANCH   20   19
ATOM    121  H18 UNL A   1      30.308  -5.395   9.997  1.00  0.00    +0.000 H 
ATOM    122  H19 UNL A   1      29.179  -4.669   8.849  1.00  0.00    +0.000 H 
ATOM     19  C14 UNL A   1      29.727  -4.528   9.757  1.00  0.00    +0.000 C 
BRANCH   19   18
ATOM     18  C13 UNL A   1      30.669  -3.343   9.560  1.00  0.00    +0.000 C 
ATOM    119  H16 UNL A   1      30.645  -2.746  10.448  1.00  0.00    +0.000 H 
ATOM    120  H17 UNL A   1      31.638  -3.751   9.360  1.00  0.00    +0.000 H 
BRANCH   18   17
ATOM     17  C12 UNL A   1      30.313  -2.449   8.370  1.00  0.00    +0.000 C 
ATOM    117  H14 UNL A   1      30.177  -3.076   7.513  1.00  0.00    +0.000 H 
ATOM    118  H15 UNL A   1      29.428  -1.917   8.651  1.00  0.00    +0.000 H 
BRANCH   17   16
ATOM    115  H12 UNL A   1      30.850  -0.476   7.793  1.00  0.00    +0.000 H 
ATOM    116  H13 UNL A   1      32.005  -1.311   8.875  1.00  0.00    +0.000 H 
ATOM     16  C11 UNL A   1      31.362  -1.387   8.022  1.00  0.00    +0.000 C 
BRANCH   16   15
ATOM    113  H10 UNL A   1      32.267  -2.794   6.697  1.00  0.00    +0.000 H 
ATOM    114  H11 UNL A   1      31.888  -1.213   5.979  1.00  0.00    +0.000 H 
ATOM     15  C10 UNL A   1      32.273  -1.733   6.832  1.00  0.00    +0.000 C 
BRANCH   15   14
ATOM     14  C9  UNL A   1      33.724  -1.277   7.020  1.00  0.00    +0.000 C 
ATOM    111  H8  UNL A   1      34.353  -2.134   7.144  1.00  0.00    +0.000 H 
ATOM    112  H9  UNL A   1      34.035  -0.724   6.159  1.00  0.00    +0.000 H 
BRANCH   14   13
ATOM     13  N1  UNL A   1      33.823  -0.433   8.194  1.00  0.00    +0.000 N 
ATOM    110  H7  UNL A   1      33.816  -0.941   9.037  1.00  0.00    +0.000 H 
BRANCH   13   11
ATOM     11  C8  UNL A   1      33.924   0.909   8.382  1.00  0.00    +0.000 C 
ATOM     12  O3  UNL A   1      34.910   1.287   9.019  1.00  0.00    +0.000 O 
BRANCH   11   10
ATOM     10  C7  UNL A   1      32.855   1.896   7.964  1.00  0.00    +0.000 C 
BRANCH   10    9
ATOM      9  C6  UNL A   1      32.867   2.515   6.760  1.00  0.00    +0.000 C 
ATOM    109  H6  UNL A   1      33.211   3.487   6.766  1.00  0.00    +0.000 H 
BRANCH    9    8
ATOM      5  C2  UNL A   1      31.878   0.906   2.906  1.00  0.00    +0.000 C 
ATOM    102  C73 UNL A   1      33.385   2.075   4.386  1.00  0.00    +0.000 C 
ATOM      6  C3  UNL A   1      30.919   0.857   3.918  1.00  0.00    +0.000 C 
ATOM    103  C74 UNL A   1      33.103   1.537   3.126  1.00  0.00    +0.000 C 
ATOM      7  C4  UNL A   1      31.203   1.419   5.169  1.00  0.00    +0.000 C 
ATOM      8  C5  UNL A   1      32.453   1.994   5.435  1.00  0.00    +0.000 C 
ATOM    107  H4  UNL A   1      30.006   0.409   3.746  1.00  0.00    +0.000 H 
ATOM    108  H5  UNL A   1      30.481   1.411   5.906  1.00  0.00    +0.000 H 
ATOM    149  H46 UNL A   1      34.291   2.541   4.547  1.00  0.00    +0.000 H 
ATOM    150  H47 UNL A   1      33.797   1.605   2.365  1.00  0.00    +0.000 H 
BRANCH    5    2
ATOM      2  S1  UNL A   1      31.531   0.189   1.315  1.00  0.00    +0.000 S 
ATOM      3  O1  UNL A   1      32.126  -1.135   1.298  1.00  0.00    +0.000 O 
ATOM      4  O2  UNL A   1      31.897   1.186   0.327  1.00  0.00    +0.000 O 
BRANCH    2    1
ATOM      1  C1  UNL A   1      29.771  -0.024   1.269  1.00  0.00    +0.000 C 
ATOM    106  H3  UNL A   1      29.306   0.715   1.886  1.00  0.00    +0.000 H 
ATOM    105  H2  UNL A   1      29.425   0.082   0.262  1.00  0.00    +0.000 H 
ATOM    104  H1  UNL A   1      29.520  -0.999   1.631  1.00  0.00    +0.000 H 
ENDBRANCH    2    1
ENDBRANCH    5    2
ENDBRANCH    9    8
ENDBRANCH   10    9
BRANCH   10   86
ATOM    101  C72 UNL A   1      31.604   1.489  10.123  1.00  0.00    +0.000 C 
ATOM    138  H35 UNL A   1      31.295   4.054   7.993  1.00  0.00    +0.000 H 
ATOM    139  H36 UNL A   1      29.516   4.639   9.525  1.00  0.00    +0.000 H 
ATOM    140  H37 UNL A   1      28.980   3.164  11.367  1.00  0.00    +0.000 H 
ATOM    148  H45 UNL A   1      32.215   0.682  10.327  1.00  0.00    +0.000 H 
ATOM     86  C60 UNL A   1      31.872   2.293   9.007  1.00  0.00    +0.000 C 
ATOM     87  C61 UNL A   1      31.095   3.445   8.801  1.00  0.00    +0.000 C 
ATOM     88  C62 UNL A   1      30.060   3.774   9.671  1.00  0.00    +0.000 C 
ATOM     89  C63 UNL A   1      29.763   2.931  10.737  1.00  0.00    +0.000 C 
ATOM     90  C64 UNL A   1      30.513   1.766  10.967  1.00  0.00    +0.000 C 
BRANCH   90   91
ATOM     99  C70 UNL A   1      28.869   0.208  14.004  1.00  0.00    +0.000 C 
ATOM    100  C71 UNL A   1      29.198   1.129  13.007  1.00  0.00    +0.000 C 
ATOM    141  H38 UNL A   1      31.297  -0.774  11.217  1.00  0.00    +0.000 H 
ATOM    142  H39 UNL A   1      30.750  -2.372  12.954  1.00  0.00    +0.000 H 
ATOM    146  H43 UNL A   1      28.212   0.466  14.756  1.00  0.00    +0.000 H 
ATOM    147  H44 UNL A   1      28.777   2.072  13.025  1.00  0.00    +0.000 H 
ATOM     91  C65 UNL A   1      30.092   0.789  11.980  1.00  0.00    +0.000 C 
ATOM     92  C66 UNL A   1      30.646  -0.506  11.972  1.00  0.00    +0.000 C 
ATOM     93  C67 UNL A   1      30.330  -1.431  12.965  1.00  0.00    +0.000 C 
ATOM     94  C68 UNL A   1      29.439  -1.067  13.975  1.00  0.00    +0.000 C 
BRANCH   94   95
ATOM     97  O5  UNL A   1      30.272  -3.064  15.400  1.00  0.00    +0.000 O 
ATOM     98  O6  UNL A   1      28.556  -1.501  16.395  1.00  0.00    +0.000 O 
ATOM     95  S2  UNL A   1      29.090  -2.237  15.264  1.00  0.00    +0.000 S 
BRANCH   95   96
ATOM    145  H42 UNL A   1      28.145  -4.213  14.395  1.00  0.00    +0.000 H 
ATOM    144  H41 UNL A   1      26.975  -3.277  15.295  1.00  0.00    +0.000 H 
ATOM    143  H40 UNL A   1      27.433  -2.786  13.681  1.00  0.00    +0.000 H 
ATOM     96  C69 UNL A   1      27.781  -3.226  14.592  1.00  0.00    +0.000 C 
ENDBRANCH   95   96
ENDBRANCH   94   95
ENDBRANCH   90   91
ENDBRANCH   10   86
ENDBRANCH   11   10
ENDBRANCH   13   11
ENDBRANCH   14   13
ENDBRANCH   15   14
ENDBRANCH   16   15
ENDBRANCH   17   16
ENDBRANCH   18   17
ENDBRANCH   19   18
ENDBRANCH   20   19
ENDBRANCH   21   20
ENDBRANCH   23   21
ENDBRANCH   27   26
BRANCH   31   32
ATOM     33  C25 UNL A   1      30.079   5.413   5.668  1.00  0.00    +0.000 C 
ATOM     34  F1  UNL A   1      29.953   5.922   6.903  1.00  0.00    +0.000 F 
ATOM     35  C26 UNL A   1      31.303   5.531   5.016  1.00  0.00    +0.000 C 
ATOM     36  F2  UNL A   1      32.324   6.155   5.619  1.00  0.00    +0.000 F 
ATOM     37  C27 UNL A   1      31.463   5.016   3.739  1.00  0.00    +0.000 C 
ATOM     38  F3  UNL A   1      32.645   5.124   3.115  1.00  0.00    +0.000 F 
ATOM     39  C28 UNL A   1      30.398   4.394   3.105  1.00  0.00    +0.000 C 
ATOM     40  F4  UNL A   1      30.555   3.884   1.877  1.00  0.00    +0.000 F 
ATOM     41  C29 UNL A   1      29.164   4.300   3.744  1.00  0.00    +0.000 C 
ATOM     42  F5  UNL A   1      28.148   3.706   3.099  1.00  0.00    +0.000 F 
ATOM     32  C24 UNL A   1      28.980   4.807   5.039  1.00  0.00    +0.000 C 
ENDBRANCH   31   32
BRANCH   48   49
ATOM     49  C35 UNL A   1      23.009   8.694   6.102  1.00  0.00    +0.000 C 
ATOM     50  C36 UNL A   1      22.186   8.862   4.979  1.00  0.00    +0.000 C 
ATOM     51  F6  UNL A   1      21.913   7.820   4.180  1.00  0.00    +0.000 F 
ATOM     52  C37 UNL A   1      21.665  10.112   4.656  1.00  0.00    +0.000 C 
ATOM     53  F7  UNL A   1      20.912  10.259   3.557  1.00  0.00    +0.000 F 
ATOM     54  C38 UNL A   1      21.931  11.208   5.463  1.00  0.00    +0.000 C 
ATOM     55  F8  UNL A   1      21.419  12.408   5.157  1.00  0.00    +0.000 F 
ATOM     56  C39 UNL A   1      22.734  11.062   6.585  1.00  0.00    +0.000 C 
ATOM     57  F9  UNL A   1      22.982  12.117   7.373  1.00  0.00    +0.000 F 
ATOM     58  C40 UNL A   1      23.279   9.819   6.895  1.00  0.00    +0.000 C 
ATOM     59  F10 UNL A   1      24.056   9.709   7.983  1.00  0.00    +0.000 F 
ENDBRANCH   48   49
BRANCH   63   64
ATOM     65  C45 UNL A   1      19.255   3.076   9.406  1.00  0.00    +0.000 C 
ATOM     66  F11 UNL A   1      19.266   2.788   8.095  1.00  0.00    +0.000 F 
ATOM     67  C46 UNL A   1      18.067   2.932  10.119  1.00  0.00    +0.000 C 
ATOM     68  F12 UNL A   1      16.959   2.516   9.492  1.00  0.00    +0.000 F 
ATOM     69  C47 UNL A   1      18.027   3.231  11.472  1.00  0.00    +0.000 C 
ATOM     70  F13 UNL A   1      16.887   3.086  12.160  1.00  0.00    +0.000 F 
ATOM     71  C48 UNL A   1      19.171   3.686  12.111  1.00  0.00    +0.000 C 
ATOM     72  F14 UNL A   1      19.141   3.960  13.422  1.00  0.00    +0.000 F 
ATOM     73  C49 UNL A   1      20.352   3.856  11.393  1.00  0.00    +0.000 C 
ATOM     74  F15 UNL A   1      21.441   4.307  12.034  1.00  0.00    +0.000 F 
ATOM     64  C44 UNL A   1      20.420   3.549  10.026  1.00  0.00    +0.000 C 
ENDBRANCH   63   64
TORSDOF 23
ENDMDL
