MODEL 1
REMARK VINA RESULT:      -9.7      0.000      0.000
ROOT
ATOM    130  H32 UNL A   1      18.536  37.993  45.865  1.00  0.00    +0.000 H 
ATOM    131  H33 UNL A   1      19.581  36.607  43.878  1.00  0.00    +0.000 H 
ATOM    132  H34 UNL A   1      19.255  34.141  47.166  1.00  0.00    +0.000 H 
ATOM    133  H35 UNL A   1      22.775  37.601  44.678  1.00  0.00    +0.000 H 
ATOM    134  H36 UNL A   1      21.636  37.970  46.934  1.00  0.00    +0.000 H 
ATOM    135  H37 UNL A   1      25.635  37.080  47.593  1.00  0.00    +0.000 H 
ATOM    136  H38 UNL A   1      24.708  32.765  43.983  1.00  0.00    +0.000 H 
ATOM    137  H39 UNL A   1      22.299  31.884  43.746  1.00  0.00    +0.000 H 
ATOM    138  H40 UNL A   1      19.260  35.930  51.328  1.00  0.00    +0.000 H 
ATOM    139  H41 UNL A   1      21.765  36.399  51.681  1.00  0.00    +0.000 H 
ATOM     36  C29 UNL A   1      23.143  36.718  49.097  1.00  0.00    +0.000 C 
ATOM     37  C30 UNL A   1      21.728  36.461  49.422  1.00  0.00    +0.000 C 
ATOM     38  N6  UNL A   1      20.816  36.231  48.538  1.00  0.00    +0.000 N 
ATOM     39  C31 UNL A   1      19.604  36.199  49.180  1.00  0.00    +0.000 C 
ATOM     40  C32 UNL A   1      18.469  36.357  48.441  1.00  0.00    +0.000 C 
ATOM     52  C39 UNL A   1      18.745  36.175  47.011  1.00  0.00    +0.000 C 
ATOM     53  C40 UNL A   1      18.829  37.004  45.904  1.00  0.00    +0.000 C 
ATOM     54  C41 UNL A   1      19.392  36.252  44.829  1.00  0.00    +0.000 C 
ATOM     55  C42 UNL A   1      19.638  34.969  45.280  1.00  0.00    +0.000 C 
ATOM     56  N7  UNL A   1      19.219  34.941  46.594  1.00  0.00    +0.000 N 
ATOM     57  C43 UNL A   1      20.260  33.784  44.715  1.00  0.00    +0.000 C 
ATOM     69  C50 UNL A   1      21.613  33.810  44.561  1.00  0.00    +0.000 C 
ATOM     70  N8  UNL A   1      22.373  34.888  44.923  1.00  0.00    +0.000 N 
ATOM     71  C51 UNL A   1      23.634  34.581  44.801  1.00  0.00    +0.000 C 
ATOM     72  C52 UNL A   1      24.768  35.446  45.296  1.00  0.00    +0.000 C 
ATOM     84  C59 UNL A   1      24.390  36.631  45.856  1.00  0.00    +0.000 C 
ATOM     85  C60 UNL A   1      23.146  37.328  45.602  1.00  0.00    +0.000 C 
ATOM     86  C61 UNL A   1      22.569  37.553  46.789  1.00  0.00    +0.000 C 
ATOM     87  C62 UNL A   1      23.478  37.110  47.844  1.00  0.00    +0.000 C 
ATOM     88  N9  UNL A   1      24.738  36.971  47.203  1.00  0.00    +0.000 N 
ATOM     89  C63 UNL A   1      23.829  33.246  44.229  1.00  0.00    +0.000 C 
ATOM     90  C64 UNL A   1      22.563  32.812  44.111  1.00  0.00    +0.000 C 
ATOM     91  C65 UNL A   1      19.942  36.125  50.579  1.00  0.00    +0.000 C 
ATOM     92  C66 UNL A   1      21.245  36.338  50.791  1.00  0.00    +0.000 C 
ENDROOT
BRANCH   36   35
ATOM     33  C26 UNL A   1      25.910  35.340  51.174  1.00  0.00    +0.000 C 
ATOM     34  C27 UNL A   1      24.655  35.383  50.579  1.00  0.00    +0.000 C 
ATOM    129  H31 UNL A   1      24.093  34.524  50.474  1.00  0.00    +0.000 H 
ATOM     35  C28 UNL A   1      24.170  36.611  50.128  1.00  0.00    +0.000 C 
ATOM    140  H42 UNL A   1      24.329  38.715  50.320  1.00  0.00    +0.000 H 
ATOM    141  H43 UNL A   1      26.419  38.633  51.571  1.00  0.00    +0.000 H 
ATOM    128  H30 UNL A   1      26.313  34.446  51.494  1.00  0.00    +0.000 H 
ATOM     93  C67 UNL A   1      24.782  37.811  50.524  1.00  0.00    +0.000 C 
ATOM     94  C68 UNL A   1      25.992  37.775  51.190  1.00  0.00    +0.000 C 
ATOM     32  C25 UNL A   1      26.615  36.537  51.327  1.00  0.00    +0.000 C 
BRANCH   32   30
ATOM     30  C24 UNL A   1      28.086  36.473  51.158  1.00  0.00    +0.000 C 
ATOM     31  O2  UNL A   1      28.783  35.985  52.016  1.00  0.00    +0.000 O 
BRANCH   30   29
ATOM     29  N5  UNL A   1      28.591  36.922  49.936  1.00  0.00    +0.000 N 
ATOM    127  H29 UNL A   1      28.745  37.891  49.860  1.00  0.00    +0.000 H 
BRANCH   29   28
ATOM     28  C23 UNL A   1      28.920  36.121  48.746  1.00  0.00    +0.000 C 
ATOM    125  H27 UNL A   1      29.011  35.100  49.050  1.00  0.00    +0.000 H 
ATOM    126  H28 UNL A   1      28.128  36.292  48.046  1.00  0.00    +0.000 H 
BRANCH   28   27
ATOM     27  C22 UNL A   1      30.209  36.517  48.027  1.00  0.00    +0.000 C 
ATOM    124  H26 UNL A   1      29.880  36.895  47.083  1.00  0.00    +0.000 H 
ATOM    123  H25 UNL A   1      30.831  35.646  47.991  1.00  0.00    +0.000 H 
BRANCH   27   26
ATOM    121  H23 UNL A   1      30.801  37.716  49.658  1.00  0.00    +0.000 H 
ATOM     26  C21 UNL A   1      31.048  37.650  48.618  1.00  0.00    +0.000 C 
ATOM    122  H24 UNL A   1      32.057  37.375  48.391  1.00  0.00    +0.000 H 
BRANCH   26   25
ATOM     25  C20 UNL A   1      30.898  39.060  48.025  1.00  0.00    +0.000 C 
ATOM    119  H21 UNL A   1      31.892  39.389  47.802  1.00  0.00    +0.000 H 
ATOM    120  H22 UNL A   1      30.195  38.877  47.239  1.00  0.00    +0.000 H 
BRANCH   25   24
ATOM    117  H19 UNL A   1      30.875  41.077  48.652  1.00  0.00    +0.000 H 
ATOM    118  H20 UNL A   1      29.254  40.261  48.303  1.00  0.00    +0.000 H 
ATOM     24  C19 UNL A   1      30.219  40.238  48.763  1.00  0.00    +0.000 C 
BRANCH   24   23
ATOM    115  H17 UNL A   1      29.243  39.311  50.394  1.00  0.00    +0.000 H 
ATOM    116  H18 UNL A   1      30.796  40.155  50.761  1.00  0.00    +0.000 H 
ATOM     23  C18 UNL A   1      29.857  40.175  50.248  1.00  0.00    +0.000 C 
BRANCH   23   22
ATOM    114  H16 UNL A   1      29.484  41.683  51.657  1.00  0.00    +0.000 H 
ATOM     22  N4  UNL A   1      29.147  41.316  50.808  1.00  0.00    +0.000 N 
BRANCH   22   20
ATOM     20  C17 UNL A   1      28.044  41.924  50.252  1.00  0.00    +0.000 C 
ATOM     21  O1  UNL A   1      26.948  41.492  50.642  1.00  0.00    +0.000 O 
BRANCH   20   19
ATOM    110  H12 UNL A   1      26.622  43.846  46.400  1.00  0.00    +0.000 H 
ATOM    111  H13 UNL A   1      28.671  43.489  47.413  1.00  0.00    +0.000 H 
ATOM    112  H14 UNL A   1      27.939  42.010  47.687  1.00  0.00    +0.000 H 
ATOM     17  C15 UNL A   1      26.628  43.552  47.428  1.00  0.00    +0.000 C 
ATOM     18  N3  UNL A   1      27.910  43.009  47.893  1.00  0.00    +0.000 N 
ATOM     19  C16 UNL A   1      28.056  43.201  49.357  1.00  0.00    +0.000 C 
ATOM    142  H44 UNL A   1      27.628  45.015  50.447  1.00  0.00    +0.000 H 
ATOM    143  H45 UNL A   1      26.363  43.853  50.554  1.00  0.00    +0.000 H 
ATOM    113  H15 UNL A   1      29.066  43.545  49.444  1.00  0.00    +0.000 H 
ATOM     95  C69 UNL A   1      27.092  44.273  49.892  1.00  0.00    +0.000 C 
ATOM     96  S1  UNL A   1      26.321  45.013  48.432  1.00  0.00    +0.000 S 
BRANCH   17   16
ATOM      6  C6  UNL A   1      25.604  41.152  46.990  1.00  0.00    +0.000 C 
ATOM      7  N1  UNL A   1      24.459  40.499  47.301  1.00  0.00    +0.000 N 
ATOM      8  N2  UNL A   1      23.837  41.303  48.201  1.00  0.00    +0.000 N 
ATOM    109  H11 UNL A   1      24.044  43.355  48.770  1.00  0.00    +0.000 H 
ATOM     15  C13 UNL A   1      24.416  42.534  48.267  1.00  0.00    +0.000 C 
ATOM     16  C14 UNL A   1      25.587  42.487  47.541  1.00  0.00    +0.000 C 
BRANCH    6    5
ATOM     97  C70 UNL A   1      27.333  41.136  45.165  1.00  0.00    +0.000 C 
ATOM      2  C2  UNL A   1      28.852  39.245  44.847  1.00  0.00    +0.000 C 
ATOM      3  C3  UNL A   1      28.192  38.577  45.873  1.00  0.00    +0.000 C 
ATOM      4  C4  UNL A   1      27.134  39.195  46.548  1.00  0.00    +0.000 C 
ATOM     98  C71 UNL A   1      28.402  40.521  44.484  1.00  0.00    +0.000 C 
ATOM    102  H4  UNL A   1      28.482  37.622  46.136  1.00  0.00    +0.000 H 
ATOM      5  C5  UNL A   1      26.699  40.494  46.233  1.00  0.00    +0.000 C 
ATOM    103  H5  UNL A   1      26.657  38.679  47.304  1.00  0.00    +0.000 H 
ATOM    144  H46 UNL A   1      27.014  42.072  44.873  1.00  0.00    +0.000 H 
ATOM    145  H47 UNL A   1      28.861  41.018  43.705  1.00  0.00    +0.000 H 
BRANCH    2    1
ATOM      1  C1  UNL A   1      30.013  38.581  44.168  1.00  0.00    +0.000 C 
ATOM     99  H1  UNL A   1      30.848  38.548  44.836  1.00  0.00    +0.000 H 
ATOM    100  H2  UNL A   1      30.278  39.135  43.291  1.00  0.00    +0.000 H 
ATOM    101  H3  UNL A   1      29.740  37.584  43.889  1.00  0.00    +0.000 H 
ENDBRANCH    2    1
ENDBRANCH    6    5
BRANCH    8    9
ATOM    104  H6  UNL A   1      21.492  40.260  47.617  1.00  0.00    +0.000 H 
ATOM      9  C7  UNL A   1      22.871  40.837  49.123  1.00  0.00    +0.000 C 
ATOM     10  C8  UNL A   1      21.646  40.340  48.634  1.00  0.00    +0.000 C 
ATOM     11  C9  UNL A   1      20.643  39.956  49.522  1.00  0.00    +0.000 C 
ATOM    108  H10 UNL A   1      24.009  41.247  50.855  1.00  0.00    +0.000 H 
ATOM     13  C11 UNL A   1      22.135  40.403  51.372  1.00  0.00    +0.000 C 
ATOM     14  C12 UNL A   1      23.117  40.875  50.493  1.00  0.00    +0.000 C 
ATOM    105  H7  UNL A   1      19.719  39.660  49.167  1.00  0.00    +0.000 H 
ATOM    107  H9  UNL A   1      22.330  40.371  52.384  1.00  0.00    +0.000 H 
ATOM     12  C10 UNL A   1      20.894  39.972  50.890  1.00  0.00    +0.000 C 
ATOM    106  H8  UNL A   1      20.164  39.667  51.552  1.00  0.00    +0.000 H 
ENDBRANCH    8    9
ENDBRANCH   17   16
ENDBRANCH   20   19
ENDBRANCH   22   20
ENDBRANCH   23   22
ENDBRANCH   24   23
ENDBRANCH   25   24
ENDBRANCH   26   25
ENDBRANCH   27   26
ENDBRANCH   28   27
ENDBRANCH   29   28
ENDBRANCH   30   29
ENDBRANCH   32   30
ENDBRANCH   36   35
BRANCH   40   41
ATOM     41  C33 UNL A   1      17.122  36.828  48.967  1.00  0.00    +0.000 C 
ATOM     42  C34 UNL A   1      15.928  36.365  48.366  1.00  0.00    +0.000 C 
ATOM     43  F1  UNL A   1      15.944  35.417  47.418  1.00  0.00    +0.000 F 
ATOM     44  C35 UNL A   1      14.666  36.874  48.694  1.00  0.00    +0.000 C 
ATOM     45  F2  UNL A   1      13.581  36.433  48.041  1.00  0.00    +0.000 F 
ATOM     46  C36 UNL A   1      14.529  37.840  49.667  1.00  0.00    +0.000 C 
ATOM     47  F3  UNL A   1      13.325  38.340  49.975  1.00  0.00    +0.000 F 
ATOM     48  C37 UNL A   1      15.654  38.293  50.313  1.00  0.00    +0.000 C 
ATOM     49  F4  UNL A   1      15.550  39.228  51.269  1.00  0.00    +0.000 F 
ATOM     50  C38 UNL A   1      16.918  37.809  49.962  1.00  0.00    +0.000 C 
ATOM     51  F5  UNL A   1      17.919  38.387  50.625  1.00  0.00    +0.000 F 
ENDBRANCH   40   41
BRANCH   57   58
ATOM     65  C48 UNL A   1      17.844  31.527  42.815  1.00  0.00    +0.000 C 
ATOM     66  F9  UNL A   1      17.020  31.622  41.762  1.00  0.00    +0.000 F 
ATOM     67  C49 UNL A   1      18.512  32.660  43.275  1.00  0.00    +0.000 C 
ATOM     68  F10 UNL A   1      18.236  33.822  42.664  1.00  0.00    +0.000 F 
ATOM     58  C44 UNL A   1      19.423  32.601  44.346  1.00  0.00    +0.000 C 
ATOM     59  C45 UNL A   1      19.593  31.351  44.961  1.00  0.00    +0.000 C 
ATOM     60  F6  UNL A   1      20.453  31.204  45.980  1.00  0.00    +0.000 F 
ATOM     61  C46 UNL A   1      18.890  30.226  44.527  1.00  0.00    +0.000 C 
ATOM     62  F7  UNL A   1      19.053  29.054  45.156  1.00  0.00    +0.000 F 
ATOM     63  C47 UNL A   1      18.030  30.311  43.444  1.00  0.00    +0.000 C 
ATOM     64  F8  UNL A   1      17.379  29.222  43.010  1.00  0.00    +0.000 F 
ENDBRANCH   57   58
BRANCH   72   73
ATOM     73  C53 UNL A   1      26.057  34.945  45.831  1.00  0.00    +0.000 C 
ATOM     74  C54 UNL A   1      26.023  33.972  46.849  1.00  0.00    +0.000 C 
ATOM     75  F11 UNL A   1      24.898  33.779  47.556  1.00  0.00    +0.000 F 
ATOM     76  C55 UNL A   1      27.100  33.118  47.065  1.00  0.00    +0.000 C 
ATOM     77  F12 UNL A   1      27.000  32.131  47.967  1.00  0.00    +0.000 F 
ATOM     78  C56 UNL A   1      28.244  33.243  46.295  1.00  0.00    +0.000 C 
ATOM     79  F13 UNL A   1      29.248  32.367  46.437  1.00  0.00    +0.000 F 
ATOM     80  C57 UNL A   1      28.332  34.256  45.351  1.00  0.00    +0.000 C 
ATOM     81  F14 UNL A   1      29.431  34.362  44.590  1.00  0.00    +0.000 F 
ATOM     82  C58 UNL A   1      27.250  35.106  45.122  1.00  0.00    +0.000 C 
ATOM     83  F15 UNL A   1      27.333  36.004  44.130  1.00  0.00    +0.000 F 
ENDBRANCH   72   73
TORSDOF 19
ENDMDL
MODEL 2
REMARK VINA RESULT:      -9.3      1.560      3.838
ROOT
ATOM    130  H32 UNL A   1      18.411  38.176  45.885  1.00  0.00    +0.000 H 
ATOM    131  H33 UNL A   1      19.577  36.826  43.940  1.00  0.00    +0.000 H 
ATOM    132  H34 UNL A   1      19.363  34.404  47.270  1.00  0.00    +0.000 H 
ATOM    133  H35 UNL A   1      22.685  38.045  44.768  1.00  0.00    +0.000 H 
ATOM    134  H36 UNL A   1      21.488  38.378  46.999  1.00  0.00    +0.000 H 
ATOM    135  H37 UNL A   1      25.527  37.768  47.733  1.00  0.00    +0.000 H 
ATOM    136  H38 UNL A   1      24.944  33.337  44.193  1.00  0.00    +0.000 H 
ATOM    137  H39 UNL A   1      22.603  32.293  43.937  1.00  0.00    +0.000 H 
ATOM    138  H40 UNL A   1      19.184  36.264  51.396  1.00  0.00    +0.000 H 
ATOM    139  H41 UNL A   1      21.646  36.905  51.776  1.00  0.00    +0.000 H 
ATOM     36  C29 UNL A   1      23.041  37.268  49.207  1.00  0.00    +0.000 C 
ATOM     37  C30 UNL A   1      21.640  36.924  49.517  1.00  0.00    +0.000 C 
ATOM     38  N6  UNL A   1      20.760  36.618  48.623  1.00  0.00    +0.000 N 
ATOM     39  C31 UNL A   1      19.543  36.516  49.249  1.00  0.00    +0.000 C 
ATOM     40  C32 UNL A   1      18.412  36.586  48.490  1.00  0.00    +0.000 C 
ATOM     52  C39 UNL A   1      18.722  36.396  47.068  1.00  0.00    +0.000 C 
ATOM     53  C40 UNL A   1      18.768  37.209  45.948  1.00  0.00    +0.000 C 
ATOM     54  C41 UNL A   1      19.396  36.478  44.894  1.00  0.00    +0.000 C 
ATOM     55  C42 UNL A   1      19.720  35.221  45.374  1.00  0.00    +0.000 C 
ATOM     56  N7  UNL A   1      19.283  35.189  46.682  1.00  0.00    +0.000 N 
ATOM     57  C43 UNL A   1      20.427  34.071  44.840  1.00  0.00    +0.000 C 
ATOM     69  C50 UNL A   1      21.778  34.184  44.706  1.00  0.00    +0.000 C 
ATOM     70  N8  UNL A   1      22.459  35.316  45.058  1.00  0.00    +0.000 N 
ATOM     71  C51 UNL A   1      23.740  35.092  44.960  1.00  0.00    +0.000 C 
ATOM     72  C52 UNL A   1      24.806  36.039  45.456  1.00  0.00    +0.000 C 
ATOM     84  C59 UNL A   1      24.342  37.206  45.987  1.00  0.00    +0.000 C 
ATOM     85  C60 UNL A   1      23.059  37.814  45.702  1.00  0.00    +0.000 C 
ATOM     86  C61 UNL A   1      22.449  38.022  46.876  1.00  0.00    +0.000 C 
ATOM     87  C62 UNL A   1      23.369  37.659  47.952  1.00  0.00    +0.000 C 
ATOM     88  N9  UNL A   1      24.645  37.592  47.333  1.00  0.00    +0.000 N 
ATOM     89  C63 UNL A   1      24.032  33.762  44.417  1.00  0.00    +0.000 C 
ATOM     90  C64 UNL A   1      22.799  33.243  44.289  1.00  0.00    +0.000 C 
ATOM     91  C65 UNL A   1      19.864  36.491  50.654  1.00  0.00    +0.000 C 
ATOM     92  C66 UNL A   1      21.145  36.794  50.881  1.00  0.00    +0.000 C 
ENDROOT
BRANCH   36   35
ATOM     33  C26 UNL A   1      26.017  36.248  51.201  1.00  0.00    +0.000 C 
ATOM     34  C27 UNL A   1      24.787  36.102  50.569  1.00  0.00    +0.000 C 
ATOM    129  H31 UNL A   1      24.422  35.165  50.339  1.00  0.00    +0.000 H 
ATOM     35  C28 UNL A   1      24.057  37.248  50.255  1.00  0.00    +0.000 C 
ATOM    140  H42 UNL A   1      23.761  39.297  50.710  1.00  0.00    +0.000 H 
ATOM    141  H43 UNL A   1      25.808  39.496  52.019  1.00  0.00    +0.000 H 
ATOM    128  H30 UNL A   1      26.597  35.425  51.424  1.00  0.00    +0.000 H 
ATOM     93  C67 UNL A   1      24.394  38.489  50.818  1.00  0.00    +0.000 C 
ATOM     94  C68 UNL A   1      25.578  38.623  51.519  1.00  0.00    +0.000 C 
ATOM     32  C25 UNL A   1      26.448  37.537  51.526  1.00  0.00    +0.000 C 
BRANCH   32   30
ATOM     30  C24 UNL A   1      27.901  37.806  51.405  1.00  0.00    +0.000 C 
ATOM     31  O2  UNL A   1      28.663  36.930  51.072  1.00  0.00    +0.000 O 
BRANCH   30   29
ATOM     29  N5  UNL A   1      28.307  39.126  51.611  1.00  0.00    +0.000 N 
ATOM    127  H29 UNL A   1      28.094  39.513  52.490  1.00  0.00    +0.000 H 
BRANCH   29   28
ATOM     28  C23 UNL A   1      29.015  40.009  50.670  1.00  0.00    +0.000 C 
ATOM    125  H27 UNL A   1      29.731  40.578  51.226  1.00  0.00    +0.000 H 
ATOM    126  H28 UNL A   1      29.454  39.367  49.935  1.00  0.00    +0.000 H 
BRANCH   28   27
ATOM     27  C22 UNL A   1      28.131  40.988  49.900  1.00  0.00    +0.000 C 
ATOM    124  H26 UNL A   1      27.271  40.412  49.631  1.00  0.00    +0.000 H 
ATOM    123  H25 UNL A   1      28.713  41.367  49.085  1.00  0.00    +0.000 H 
BRANCH   27   26
ATOM    121  H23 UNL A   1      26.512  42.019  50.775  1.00  0.00    +0.000 H 
ATOM     26  C21 UNL A   1      27.561  42.193  50.649  1.00  0.00    +0.000 C 
ATOM    122  H24 UNL A   1      28.141  42.241  51.547  1.00  0.00    +0.000 H 
BRANCH   26   25
ATOM     25  C20 UNL A   1      27.718  43.588  50.023  1.00  0.00    +0.000 C 
ATOM    119  H21 UNL A   1      28.543  44.043  50.530  1.00  0.00    +0.000 H 
ATOM    120  H22 UNL A   1      27.786  43.339  48.984  1.00  0.00    +0.000 H 
BRANCH   25   24
ATOM    117  H19 UNL A   1      25.676  44.115  49.908  1.00  0.00    +0.000 H 
ATOM    118  H20 UNL A   1      26.796  45.205  50.893  1.00  0.00    +0.000 H 
ATOM     24  C19 UNL A   1      26.597  44.654  49.999  1.00  0.00    +0.000 C 
BRANCH   24   23
ATOM    115  H17 UNL A   1      27.437  46.346  49.051  1.00  0.00    +0.000 H 
ATOM    116  H18 UNL A   1      26.439  45.258  48.014  1.00  0.00    +0.000 H 
ATOM     23  C18 UNL A   1      26.544  45.765  48.950  1.00  0.00    +0.000 C 
BRANCH   23   22
ATOM    114  H16 UNL A   1      25.336  47.246  49.813  1.00  0.00    +0.000 H 
ATOM     22  N4  UNL A   1      25.416  46.682  49.010  1.00  0.00    +0.000 N 
BRANCH   22   20
ATOM     20  C17 UNL A   1      24.450  46.829  48.039  1.00  0.00    +0.000 C 
ATOM     21  O1  UNL A   1      24.870  47.160  46.920  1.00  0.00    +0.000 O 
BRANCH   20   19
ATOM    110  H12 UNL A   1      21.347  43.564  47.520  1.00  0.00    +0.000 H 
ATOM    111  H13 UNL A   1      21.595  45.743  46.784  1.00  0.00    +0.000 H 
ATOM    112  H14 UNL A   1      23.153  45.172  46.565  1.00  0.00    +0.000 H 
ATOM     17  C15 UNL A   1      22.093  44.170  47.991  1.00  0.00    +0.000 C 
ATOM     18  N3  UNL A   1      22.431  45.392  47.252  1.00  0.00    +0.000 N 
ATOM     19  C16 UNL A   1      22.948  46.432  48.175  1.00  0.00    +0.000 C 
ATOM    142  H44 UNL A   1      22.087  46.981  50.077  1.00  0.00    +0.000 H 
ATOM    143  H45 UNL A   1      23.440  45.929  50.232  1.00  0.00    +0.000 H 
ATOM    113  H15 UNL A   1      22.437  47.311  47.841  1.00  0.00    +0.000 H 
ATOM     95  C69 UNL A   1      22.574  46.136  49.637  1.00  0.00    +0.000 C 
ATOM     96  S1  UNL A   1      21.450  44.719  49.580  1.00  0.00    +0.000 S 
BRANCH   17   16
ATOM      6  C6  UNL A   1      23.547  42.169  48.931  1.00  0.00    +0.000 C 
ATOM      7  N1  UNL A   1      24.786  41.668  48.716  1.00  0.00    +0.000 N 
ATOM      8  N2  UNL A   1      25.234  42.318  47.611  1.00  0.00    +0.000 N 
ATOM    109  H11 UNL A   1      24.645  44.096  46.578  1.00  0.00    +0.000 H 
ATOM     15  C13 UNL A   1      24.439  43.374  47.286  1.00  0.00    +0.000 C 
ATOM     16  C14 UNL A   1      23.309  43.307  48.074  1.00  0.00    +0.000 C 
BRANCH    6    5
ATOM     97  C70 UNL A   1      22.808  41.627  51.272  1.00  0.00    +0.000 C 
ATOM      2  C2  UNL A   1      20.741  40.398  51.718  1.00  0.00    +0.000 C 
ATOM      3  C3  UNL A   1      20.558  40.261  50.345  1.00  0.00    +0.000 C 
ATOM      4  C4  UNL A   1      21.478  40.823  49.455  1.00  0.00    +0.000 C 
ATOM     98  C71 UNL A   1      21.883  41.068  52.175  1.00  0.00    +0.000 C 
ATOM    102  H4  UNL A   1      19.742  39.743  49.984  1.00  0.00    +0.000 H 
ATOM      5  C5  UNL A   1      22.605  41.541  49.891  1.00  0.00    +0.000 C 
ATOM    103  H5  UNL A   1      21.323  40.707  48.441  1.00  0.00    +0.000 H 
ATOM    144  H46 UNL A   1      23.647  42.107  51.634  1.00  0.00    +0.000 H 
ATOM    145  H47 UNL A   1      22.050  41.151  53.190  1.00  0.00    +0.000 H 
BRANCH    2    1
ATOM      1  C1  UNL A   1      19.717  39.827  52.654  1.00  0.00    +0.000 C 
ATOM     99  H1  UNL A   1      20.128  39.770  53.641  1.00  0.00    +0.000 H 
ATOM    100  H2  UNL A   1      19.440  38.847  52.325  1.00  0.00    +0.000 H 
ATOM    101  H3  UNL A   1      18.852  40.457  52.665  1.00  0.00    +0.000 H 
ENDBRANCH    2    1
ENDBRANCH    6    5
BRANCH    8    9
ATOM    104  H6  UNL A   1      25.189  40.038  46.297  1.00  0.00    +0.000 H 
ATOM      9  C7  UNL A   1      26.253  41.811  46.771  1.00  0.00    +0.000 C 
ATOM     10  C8  UNL A   1      26.078  40.548  46.172  1.00  0.00    +0.000 C 
ATOM     11  C9  UNL A   1      27.101  39.987  45.411  1.00  0.00    +0.000 C 
ATOM    108  H10 UNL A   1      27.553  43.463  46.988  1.00  0.00    +0.000 H 
ATOM     13  C11 UNL A   1      28.401  42.005  45.705  1.00  0.00    +0.000 C 
ATOM     14  C12 UNL A   1      27.417  42.541  46.544  1.00  0.00    +0.000 C 
ATOM    105  H7  UNL A   1      27.004  39.031  45.031  1.00  0.00    +0.000 H 
ATOM    107  H9  UNL A   1      29.240  42.562  45.483  1.00  0.00    +0.000 H 
ATOM     12  C10 UNL A   1      28.256  40.723  45.165  1.00  0.00    +0.000 C 
ATOM    106  H8  UNL A   1      29.008  40.323  44.582  1.00  0.00    +0.000 H 
ENDBRANCH    8    9
ENDBRANCH   17   16
ENDBRANCH   20   19
ENDBRANCH   22   20
ENDBRANCH   23   22
ENDBRANCH   24   23
ENDBRANCH   25   24
ENDBRANCH   26   25
ENDBRANCH   27   26
ENDBRANCH   28   27
ENDBRANCH   29   28
ENDBRANCH   30   29
ENDBRANCH   32   30
ENDBRANCH   36   35
BRANCH   40   41
ATOM     41  C33 UNL A   1      17.029  36.976  48.988  1.00  0.00    +0.000 C 
ATOM     42  C34 UNL A   1      15.879  36.394  48.404  1.00  0.00    +0.000 C 
ATOM     43  F1  UNL A   1      15.975  35.407  47.502  1.00  0.00    +0.000 F 
ATOM     44  C35 UNL A   1      14.578  36.819  48.703  1.00  0.00    +0.000 C 
ATOM     45  F2  UNL A   1      13.536  36.266  48.066  1.00  0.00    +0.000 F 
ATOM     46  C36 UNL A   1      14.359  37.816  49.628  1.00  0.00    +0.000 C 
ATOM     47  F3  UNL A   1      13.118  38.235  49.907  1.00  0.00    +0.000 F 
ATOM     48  C37 UNL A   1      15.442  38.384  50.257  1.00  0.00    +0.000 C 
ATOM     49  F4  UNL A   1      15.258  39.352  51.166  1.00  0.00    +0.000 F 
ATOM     50  C38 UNL A   1      16.742  37.983  49.934  1.00  0.00    +0.000 C 
ATOM     51  F5  UNL A   1      17.690  38.667  50.574  1.00  0.00    +0.000 F 
ENDBRANCH   40   41
BRANCH   57   58
ATOM     65  C48 UNL A   1      18.180  31.631  42.960  1.00  0.00    +0.000 C 
ATOM     66  F9  UNL A   1      17.354  31.657  41.904  1.00  0.00    +0.000 F 
ATOM     67  C49 UNL A   1      18.766  32.813  43.409  1.00  0.00    +0.000 C 
ATOM     68  F10 UNL A   1      18.411  33.947  42.786  1.00  0.00    +0.000 F 
ATOM     58  C44 UNL A   1      19.677  32.828  44.482  1.00  0.00    +0.000 C 
ATOM     59  C45 UNL A   1      19.933  31.599  45.109  1.00  0.00    +0.000 C 
ATOM     60  F6  UNL A   1      20.799  31.523  46.131  1.00  0.00    +0.000 F 
ATOM     61  C46 UNL A   1      19.311  30.424  44.686  1.00  0.00    +0.000 C 
ATOM     62  F7  UNL A   1      19.556  29.272  45.326  1.00  0.00    +0.000 F 
ATOM     63  C47 UNL A   1      18.450  30.437  43.601  1.00  0.00    +0.000 C 
ATOM     64  F8  UNL A   1      17.879  29.301  43.177  1.00  0.00    +0.000 F 
ENDBRANCH   57   58
BRANCH   72   73
ATOM     73  C53 UNL A   1      26.116  35.634  46.018  1.00  0.00    +0.000 C 
ATOM     74  C54 UNL A   1      26.133  34.660  47.035  1.00  0.00    +0.000 C 
ATOM     75  F11 UNL A   1      25.010  34.383  47.717  1.00  0.00    +0.000 F 
ATOM     76  C55 UNL A   1      27.266  33.888  47.275  1.00  0.00    +0.000 C 
ATOM     77  F12 UNL A   1      27.220  32.895  48.175  1.00  0.00    +0.000 F 
ATOM     78  C56 UNL A   1      28.414  34.099  46.531  1.00  0.00    +0.000 C 
ATOM     79  F13 UNL A   1      29.477  33.300  46.695  1.00  0.00    +0.000 F 
ATOM     80  C57 UNL A   1      28.447  35.117  45.588  1.00  0.00    +0.000 C 
ATOM     81  F14 UNL A   1      29.551  35.306  44.851  1.00  0.00    +0.000 F 
ATOM     82  C58 UNL A   1      27.310  35.885  45.336  1.00  0.00    +0.000 C 
ATOM     83  F15 UNL A   1      27.347  36.788  44.345  1.00  0.00    +0.000 F 
ENDBRANCH   72   73
TORSDOF 19
ENDMDL
MODEL 3
REMARK VINA RESULT:      -9.3      1.734      4.353
ROOT
ATOM    130  H32 UNL A   1      18.408  38.138  45.525  1.00  0.00    +0.000 H 
ATOM    131  H33 UNL A   1      19.728  36.772  43.693  1.00  0.00    +0.000 H 
ATOM    132  H34 UNL A   1      19.281  34.395  47.032  1.00  0.00    +0.000 H 
ATOM    133  H35 UNL A   1      22.755  38.029  44.734  1.00  0.00    +0.000 H 
ATOM    134  H36 UNL A   1      21.391  38.383  46.864  1.00  0.00    +0.000 H 
ATOM    135  H37 UNL A   1      25.367  37.819  47.910  1.00  0.00    +0.000 H 
ATOM    136  H38 UNL A   1      25.088  33.334  44.400  1.00  0.00    +0.000 H 
ATOM    137  H39 UNL A   1      22.781  32.266  43.984  1.00  0.00    +0.000 H 
ATOM    138  H40 UNL A   1      18.777  36.311  51.106  1.00  0.00    +0.000 H 
ATOM    139  H41 UNL A   1      21.199  36.978  51.661  1.00  0.00    +0.000 H 
ATOM     36  C29 UNL A   1      22.780  37.317  49.199  1.00  0.00    +0.000 C 
ATOM     37  C30 UNL A   1      21.364  36.965  49.407  1.00  0.00    +0.000 C 
ATOM     38  N6  UNL A   1      20.556  36.639  48.455  1.00  0.00    +0.000 N 
ATOM     39  C31 UNL A   1      19.295  36.536  48.988  1.00  0.00    +0.000 C 
ATOM     40  C32 UNL A   1      18.225  36.584  48.145  1.00  0.00    +0.000 C 
ATOM     52  C39 UNL A   1      18.642  36.378  46.753  1.00  0.00    +0.000 C 
ATOM     53  C40 UNL A   1      18.767  37.176  45.628  1.00  0.00    +0.000 C 
ATOM     54  C41 UNL A   1      19.479  36.435  44.636  1.00  0.00    +0.000 C 
ATOM     55  C42 UNL A   1      19.774  35.188  45.156  1.00  0.00    +0.000 C 
ATOM     56  N7  UNL A   1      19.241  35.171  46.428  1.00  0.00    +0.000 N 
ATOM     57  C43 UNL A   1      20.529  34.037  44.694  1.00  0.00    +0.000 C 
ATOM     69  C50 UNL A   1      21.885  34.160  44.660  1.00  0.00    +0.000 C 
ATOM     70  N8  UNL A   1      22.529  35.303  45.047  1.00  0.00    +0.000 N 
ATOM     71  C51 UNL A   1      23.815  35.088  45.049  1.00  0.00    +0.000 C 
ATOM     72  C52 UNL A   1      24.834  36.052  45.610  1.00  0.00    +0.000 C 
ATOM     84  C59 UNL A   1      24.322  37.221  46.088  1.00  0.00    +0.000 C 
ATOM     85  C60 UNL A   1      23.059  37.814  45.697  1.00  0.00    +0.000 C 
ATOM     86  C61 UNL A   1      22.361  38.033  46.819  1.00  0.00    +0.000 C 
ATOM     87  C62 UNL A   1      23.199  37.694  47.967  1.00  0.00    +0.000 C 
ATOM     88  N9  UNL A   1      24.519  37.630  47.446  1.00  0.00    +0.000 N 
ATOM     89  C63 UNL A   1      24.157  33.754  44.549  1.00  0.00    +0.000 C 
ATOM     90  C64 UNL A   1      22.942  33.222  44.336  1.00  0.00    +0.000 C 
ATOM     91  C65 UNL A   1      19.509  36.532  50.413  1.00  0.00    +0.000 C 
ATOM     92  C66 UNL A   1      20.768  36.850  50.732  1.00  0.00    +0.000 C 
ENDROOT
BRANCH   36   35
ATOM     33  C26 UNL A   1      25.512  36.270  51.504  1.00  0.00    +0.000 C 
ATOM     34  C27 UNL A   1      24.323  36.158  50.794  1.00  0.00    +0.000 C 
ATOM    129  H31 UNL A   1      23.898  35.233  50.621  1.00  0.00    +0.000 H 
ATOM     35  C28 UNL A   1      23.714  37.321  50.321  1.00  0.00    +0.000 C 
ATOM    140  H42 UNL A   1      23.560  39.420  50.564  1.00  0.00    +0.000 H 
ATOM    141  H43 UNL A   1      25.518  39.588  52.006  1.00  0.00    +0.000 H 
ATOM    128  H30 UNL A   1      26.004  35.430  51.845  1.00  0.00    +0.000 H 
ATOM     93  C67 UNL A   1      24.114  38.581  50.794  1.00  0.00    +0.000 C 
ATOM     94  C68 UNL A   1      25.252  38.691  51.571  1.00  0.00    +0.000 C 
ATOM     32  C25 UNL A   1      26.026  37.547  51.744  1.00  0.00    +0.000 C 
BRANCH   32   30
ATOM     30  C24 UNL A   1      27.501  37.691  51.714  1.00  0.00    +0.000 C 
ATOM     31  O2  UNL A   1      28.210  36.725  51.558  1.00  0.00    +0.000 O 
BRANCH   30   29
ATOM     29  N5  UNL A   1      27.999  38.994  51.785  1.00  0.00    +0.000 N 
ATOM    127  H29 UNL A   1      27.818  39.481  52.621  1.00  0.00    +0.000 H 
BRANCH   29   28
ATOM     28  C23 UNL A   1      28.762  39.726  50.761  1.00  0.00    +0.000 C 
ATOM    125  H27 UNL A   1      29.585  40.209  51.245  1.00  0.00    +0.000 H 
ATOM    126  H28 UNL A   1      29.057  38.997  50.035  1.00  0.00    +0.000 H 
BRANCH   28   27
ATOM     27  C22 UNL A   1      27.975  40.789  49.996  1.00  0.00    +0.000 C 
ATOM    124  H26 UNL A   1      27.091  40.282  49.672  1.00  0.00    +0.000 H 
ATOM    123  H25 UNL A   1      28.613  41.157  49.219  1.00  0.00    +0.000 H 
BRANCH   27   26
ATOM    121  H23 UNL A   1      26.404  41.858  50.910  1.00  0.00    +0.000 H 
ATOM     26  C21 UNL A   1      27.455  42.002  50.769  1.00  0.00    +0.000 C 
ATOM    122  H24 UNL A   1      28.051  42.021  51.657  1.00  0.00    +0.000 H 
BRANCH   26   25
ATOM     25  C20 UNL A   1      27.645  43.398  50.155  1.00  0.00    +0.000 C 
ATOM    119  H21 UNL A   1      28.530  43.796  50.607  1.00  0.00    +0.000 H 
ATOM    120  H22 UNL A   1      27.622  43.168  49.111  1.00  0.00    +0.000 H 
BRANCH   25   24
ATOM    117  H19 UNL A   1      25.637  44.051  50.105  1.00  0.00    +0.000 H 
ATOM    118  H20 UNL A   1      26.822  44.983  51.172  1.00  0.00    +0.000 H 
ATOM     24  C19 UNL A   1      26.588  44.526  50.235  1.00  0.00    +0.000 C 
BRANCH   24   23
ATOM    115  H17 UNL A   1      27.482  46.292  49.494  1.00  0.00    +0.000 H 
ATOM    116  H18 UNL A   1      26.549  45.305  48.306  1.00  0.00    +0.000 H 
ATOM     23  C18 UNL A   1      26.598  45.726  49.288  1.00  0.00    +0.000 C 
BRANCH   23   22
ATOM    114  H16 UNL A   1      25.319  47.105  50.216  1.00  0.00    +0.000 H 
ATOM     22  N4  UNL A   1      25.467  46.639  49.361  1.00  0.00    +0.000 N 
BRANCH   22   20
ATOM     20  C17 UNL A   1      24.585  46.908  48.338  1.00  0.00    +0.000 C 
ATOM     21  O1  UNL A   1      25.103  47.315  47.287  1.00  0.00    +0.000 O 
BRANCH   20   19
ATOM    110  H12 UNL A   1      21.424  43.816  47.338  1.00  0.00    +0.000 H 
ATOM    111  H13 UNL A   1      21.806  46.029  46.785  1.00  0.00    +0.000 H 
ATOM    112  H14 UNL A   1      23.356  45.413  46.649  1.00  0.00    +0.000 H 
ATOM     17  C15 UNL A   1      22.149  44.357  47.909  1.00  0.00    +0.000 C 
ATOM     18  N3  UNL A   1      22.588  45.613  47.291  1.00  0.00    +0.000 N 
ATOM     19  C16 UNL A   1      23.065  46.564  48.326  1.00  0.00    +0.000 C 
ATOM    142  H44 UNL A   1      22.071  47.012  50.189  1.00  0.00    +0.000 H 
ATOM    143  H45 UNL A   1      23.370  45.897  50.372  1.00  0.00    +0.000 H 
ATOM    113  H15 UNL A   1      22.613  47.484  48.018  1.00  0.00    +0.000 H 
ATOM     95  C69 UNL A   1      22.563  46.180  49.728  1.00  0.00    +0.000 C 
ATOM     96  S1  UNL A   1      21.399  44.818  49.479  1.00  0.00    +0.000 S 
BRANCH   17   16
ATOM      6  C6  UNL A   1      23.472  42.270  48.856  1.00  0.00    +0.000 C 
ATOM      7  N1  UNL A   1      24.699  41.724  48.686  1.00  0.00    +0.000 N 
ATOM      8  N2  UNL A   1      25.228  42.387  47.625  1.00  0.00    +0.000 N 
ATOM    109  H11 UNL A   1      24.763  44.217  46.620  1.00  0.00    +0.000 H 
ATOM     15  C13 UNL A   1      24.493  43.484  47.295  1.00  0.00    +0.000 C 
ATOM     16  C14 UNL A   1      23.324  43.442  48.024  1.00  0.00    +0.000 C 
BRANCH    6    5
ATOM     97  C70 UNL A   1      22.568  41.739  51.141  1.00  0.00    +0.000 C 
ATOM      2  C2  UNL A   1      20.460  40.535  51.444  1.00  0.00    +0.000 C 
ATOM      3  C3  UNL A   1      20.371  40.399  50.062  1.00  0.00    +0.000 C 
ATOM      4  C4  UNL A   1      21.357  40.949  49.236  1.00  0.00    +0.000 C 
ATOM     98  C71 UNL A   1      21.576  41.191  51.978  1.00  0.00    +0.000 C 
ATOM    102  H4  UNL A   1      19.576  39.890  49.645  1.00  0.00    +0.000 H 
ATOM      5  C5  UNL A   1      22.459  41.654  49.749  1.00  0.00    +0.000 C 
ATOM    103  H5  UNL A   1      21.271  40.834  48.214  1.00  0.00    +0.000 H 
ATOM    144  H46 UNL A   1      23.385  42.209  51.560  1.00  0.00    +0.000 H 
ATOM    145  H47 UNL A   1      21.674  41.274  53.002  1.00  0.00    +0.000 H 
BRANCH    2    1
ATOM      1  C1  UNL A   1      19.368  39.977  52.307  1.00  0.00    +0.000 C 
ATOM     99  H1  UNL A   1      19.799  39.476  53.150  1.00  0.00    +0.000 H 
ATOM    100  H2  UNL A   1      18.784  39.283  51.740  1.00  0.00    +0.000 H 
ATOM    101  H3  UNL A   1      18.741  40.774  52.649  1.00  0.00    +0.000 H 
ENDBRANCH    2    1
ENDBRANCH    6    5
BRANCH    8    9
ATOM    104  H6  UNL A   1      27.549  43.524  47.128  1.00  0.00    +0.000 H 
ATOM      9  C7  UNL A   1      26.267  41.863  46.820  1.00  0.00    +0.000 C 
ATOM     10  C8  UNL A   1      27.435  42.627  46.630  1.00  0.00    +0.000 C 
ATOM     11  C9  UNL A   1      28.435  42.175  45.773  1.00  0.00    +0.000 C 
ATOM    108  H10 UNL A   1      25.279  40.057  46.343  1.00  0.00    +0.000 H 
ATOM     13  C11 UNL A   1      27.188  40.132  45.426  1.00  0.00    +0.000 C 
ATOM     14  C12 UNL A   1      26.137  40.616  46.214  1.00  0.00    +0.000 C 
ATOM    105  H7  UNL A   1      29.259  42.766  45.576  1.00  0.00    +0.000 H 
ATOM    107  H9  UNL A   1      27.128  39.186  45.021  1.00  0.00    +0.000 H 
ATOM     12  C10 UNL A   1      28.318  40.920  45.183  1.00  0.00    +0.000 C 
ATOM    106  H8  UNL A   1      29.067  40.569  44.566  1.00  0.00    +0.000 H 
ENDBRANCH    8    9
ENDBRANCH   17   16
ENDBRANCH   20   19
ENDBRANCH   22   20
ENDBRANCH   23   22
ENDBRANCH   24   23
ENDBRANCH   25   24
ENDBRANCH   26   25
ENDBRANCH   27   26
ENDBRANCH   28   27
ENDBRANCH   29   28
ENDBRANCH   30   29
ENDBRANCH   32   30
ENDBRANCH   36   35
BRANCH   40   41
ATOM     41  C33 UNL A   1      16.805  36.969  48.531  1.00  0.00    +0.000 C 
ATOM     42  C34 UNL A   1      16.585  37.937  49.539  1.00  0.00    +0.000 C 
ATOM     43  F1  UNL A   1      17.599  38.624  50.083  1.00  0.00    +0.000 F 
ATOM     44  C35 UNL A   1      15.314  38.224  50.052  1.00  0.00    +0.000 C 
ATOM     45  F2  UNL A   1      15.185  39.110  51.051  1.00  0.00    +0.000 F 
ATOM     46  C36 UNL A   1      14.196  37.590  49.556  1.00  0.00    +0.000 C 
ATOM     47  F3  UNL A   1      12.980  37.851  50.053  1.00  0.00    +0.000 F 
ATOM     48  C37 UNL A   1      14.350  36.672  48.545  1.00  0.00    +0.000 C 
ATOM     49  F4  UNL A   1      13.279  36.044  48.039  1.00  0.00    +0.000 F 
ATOM     50  C38 UNL A   1      15.623  36.361  48.056  1.00  0.00    +0.000 C 
ATOM     51  F5  UNL A   1      15.623  35.407  47.126  1.00  0.00    +0.000 F 
ENDBRANCH   40   41
BRANCH   57   58
ATOM     65  C48 UNL A   1      19.308  30.425  44.714  1.00  0.00    +0.000 C 
ATOM     66  F9  UNL A   1      19.556  29.299  45.398  1.00  0.00    +0.000 F 
ATOM     67  C49 UNL A   1      20.072  31.564  44.957  1.00  0.00    +0.000 C 
ATOM     68  F10 UNL A   1      21.080  31.449  45.834  1.00  0.00    +0.000 F 
ATOM     58  C44 UNL A   1      19.818  32.783  44.299  1.00  0.00    +0.000 C 
ATOM     59  C45 UNL A   1      18.783  32.783  43.350  1.00  0.00    +0.000 C 
ATOM     60  F6  UNL A   1      18.467  33.906  42.688  1.00  0.00    +0.000 F 
ATOM     61  C46 UNL A   1      18.048  31.629  43.077  1.00  0.00    +0.000 C 
ATOM     62  F7  UNL A   1      17.087  31.657  42.143  1.00  0.00    +0.000 F 
ATOM     63  C47 UNL A   1      18.298  30.457  43.771  1.00  0.00    +0.000 C 
ATOM     64  F8  UNL A   1      17.569  29.358  43.528  1.00  0.00    +0.000 F 
ENDBRANCH   57   58
BRANCH   72   73
ATOM     73  C53 UNL A   1      26.101  35.666  46.276  1.00  0.00    +0.000 C 
ATOM     74  C54 UNL A   1      27.292  36.289  45.855  1.00  0.00    +0.000 C 
ATOM     75  F11 UNL A   1      27.337  36.919  44.670  1.00  0.00    +0.000 F 
ATOM     76  C55 UNL A   1      28.399  36.367  46.693  1.00  0.00    +0.000 C 
ATOM     77  F12 UNL A   1      29.482  37.059  46.308  1.00  0.00    +0.000 F 
ATOM     78  C56 UNL A   1      28.352  35.793  47.952  1.00  0.00    +0.000 C 
ATOM     79  F13 UNL A   1      29.381  35.943  48.797  1.00  0.00    +0.000 F 
ATOM     80  C57 UNL A   1      27.221  35.095  48.350  1.00  0.00    +0.000 C 
ATOM     81  F14 UNL A   1      27.167  34.560  49.578  1.00  0.00    +0.000 F 
ATOM     82  C58 UNL A   1      26.104  35.025  47.517  1.00  0.00    +0.000 C 
ATOM     83  F15 UNL A   1      24.992  34.432  47.977  1.00  0.00    +0.000 F 
ENDBRANCH   72   73
TORSDOF 19
ENDMDL
MODEL 4
REMARK VINA RESULT:      -8.9     42.183     45.789
ROOT
ATOM    130  H32 UNL A   1      19.359  51.260   1.995  1.00  0.00    +0.000 H 
ATOM    131  H33 UNL A   1      18.455  48.799   1.690  1.00  0.00    +0.000 H 
ATOM    132  H34 UNL A   1      15.401  51.432   0.830  1.00  0.00    +0.000 H 
ATOM    133  H35 UNL A   1      17.592  48.553   5.010  1.00  0.00    +0.000 H 
ATOM    134  H36 UNL A   1      17.601  51.095   4.759  1.00  0.00    +0.000 H 
ATOM    135  H37 UNL A   1      14.877  50.060   7.713  1.00  0.00    +0.000 H 
ATOM    136  H38 UNL A   1      12.993  46.274   3.889  1.00  0.00    +0.000 H 
ATOM    137  H39 UNL A   1      13.406  46.767   1.394  1.00  0.00    +0.000 H 
ATOM    138  H40 UNL A   1      15.409  55.567   2.682  1.00  0.00    +0.000 H 
ATOM    139  H41 UNL A   1      14.572  55.063   5.062  1.00  0.00    +0.000 H 
ATOM     36  C29 UNL A   1      15.142  52.269   5.802  1.00  0.00    +0.000 C 
ATOM     37  C30 UNL A   1      15.437  53.033   4.575  1.00  0.00    +0.000 C 
ATOM     38  N6  UNL A   1      15.959  52.516   3.514  1.00  0.00    +0.000 N 
ATOM     39  C31 UNL A   1      16.238  53.538   2.641  1.00  0.00    +0.000 C 
ATOM     40  C32 UNL A   1      17.128  53.310   1.634  1.00  0.00    +0.000 C 
ATOM     52  C39 UNL A   1      17.361  51.872   1.454  1.00  0.00    +0.000 C 
ATOM     53  C40 UNL A   1      18.399  50.996   1.722  1.00  0.00    +0.000 C 
ATOM     54  C41 UNL A   1      17.911  49.664   1.553  1.00  0.00    +0.000 C 
ATOM     55  C42 UNL A   1      16.583  49.736   1.174  1.00  0.00    +0.000 C 
ATOM     56  N7  UNL A   1      16.280  51.080   1.100  1.00  0.00    +0.000 N 
ATOM     57  C43 UNL A   1      15.530  48.764   0.935  1.00  0.00    +0.000 C 
ATOM     69  C50 UNL A   1      15.012  48.134   2.026  1.00  0.00    +0.000 C 
ATOM     70  N8  UNL A   1      15.441  48.396   3.298  1.00  0.00    +0.000 N 
ATOM     71  C51 UNL A   1      14.676  47.764   4.144  1.00  0.00    +0.000 C 
ATOM     72  C52 UNL A   1      14.718  47.968   5.640  1.00  0.00    +0.000 C 
ATOM     84  C59 UNL A   1      15.665  48.846   6.078  1.00  0.00    +0.000 C 
ATOM     85  C60 UNL A   1      16.877  49.205   5.370  1.00  0.00    +0.000 C 
ATOM     86  C61 UNL A   1      16.898  50.541   5.273  1.00  0.00    +0.000 C 
ATOM     87  C62 UNL A   1      15.761  51.082   6.013  1.00  0.00    +0.000 C 
ATOM     88  N9  UNL A   1      15.318  50.012   6.834  1.00  0.00    +0.000 N 
ATOM     89  C63 UNL A   1      13.689  46.913   3.475  1.00  0.00    +0.000 C 
ATOM     90  C64 UNL A   1      13.928  47.183   2.181  1.00  0.00    +0.000 C 
ATOM     91  C65 UNL A   1      15.534  54.673   3.183  1.00  0.00    +0.000 C 
ATOM     92  C66 UNL A   1      15.064  54.432   4.411  1.00  0.00    +0.000 C 
ENDROOT
BRANCH   36   35
ATOM     33  C26 UNL A   1      13.858  54.319   8.634  1.00  0.00    +0.000 C 
ATOM     34  C27 UNL A   1      14.699  53.431   7.974  1.00  0.00    +0.000 C 
ATOM    129  H31 UNL A   1      15.644  53.233   8.338  1.00  0.00    +0.000 H 
ATOM     35  C28 UNL A   1      14.238  52.812   6.812  1.00  0.00    +0.000 C 
ATOM    140  H42 UNL A   1      12.518  52.254   5.708  1.00  0.00    +0.000 H 
ATOM    141  H43 UNL A   1      10.997  53.638   7.016  1.00  0.00    +0.000 H 
ATOM    128  H30 UNL A   1      14.174  54.817   9.481  1.00  0.00    +0.000 H 
ATOM     93  C67 UNL A   1      12.875  52.842   6.476  1.00  0.00    +0.000 C 
ATOM     94  C68 UNL A   1      12.015  53.663   7.182  1.00  0.00    +0.000 C 
ATOM     32  C25 UNL A   1      12.574  54.524   8.122  1.00  0.00    +0.000 C 
BRANCH   32   30
ATOM     30  C24 UNL A   1      12.024  55.897   8.223  1.00  0.00    +0.000 C 
ATOM     31  O2  UNL A   1      12.039  56.638   7.268  1.00  0.00    +0.000 O 
BRANCH   30   29
ATOM     29  N5  UNL A   1      11.424  56.238   9.437  1.00  0.00    +0.000 N 
ATOM    127  H29 UNL A   1      11.527  57.174   9.724  1.00  0.00    +0.000 H 
BRANCH   29   28
ATOM     28  C23 UNL A   1      10.657  55.365  10.341  1.00  0.00    +0.000 C 
ATOM    125  H27 UNL A   1       9.650  55.725  10.370  1.00  0.00    +0.000 H 
ATOM    126  H28 UNL A   1      10.749  54.376   9.945  1.00  0.00    +0.000 H 
BRANCH   28   27
ATOM     27  C22 UNL A   1      11.175  55.295  11.777  1.00  0.00    +0.000 C 
ATOM    124  H26 UNL A   1      10.522  54.598  12.259  1.00  0.00    +0.000 H 
ATOM    123  H25 UNL A   1      11.164  56.292  12.167  1.00  0.00    +0.000 H 
BRANCH   27   26
ATOM    121  H23 UNL A   1      13.217  55.158  11.273  1.00  0.00    +0.000 H 
ATOM     26  C21 UNL A   1      12.575  54.730  12.014  1.00  0.00    +0.000 C 
ATOM    122  H24 UNL A   1      12.793  54.986  13.030  1.00  0.00    +0.000 H 
BRANCH   26   25
ATOM     25  C20 UNL A   1      12.770  53.207  11.959  1.00  0.00    +0.000 C 
ATOM    119  H21 UNL A   1      12.389  52.899  11.008  1.00  0.00    +0.000 H 
ATOM    120  H22 UNL A   1      13.814  53.125  12.182  1.00  0.00    +0.000 H 
BRANCH   25   24
ATOM    117  H19 UNL A   1      11.476  52.792  13.577  1.00  0.00    +0.000 H 
ATOM    118  H20 UNL A   1      11.806  51.438  12.365  1.00  0.00    +0.000 H 
ATOM     24  C19 UNL A   1      12.170  52.223  12.993  1.00  0.00    +0.000 C 
BRANCH   24   23
ATOM    115  H17 UNL A   1      14.056  51.717  13.803  1.00  0.00    +0.000 H 
ATOM    116  H18 UNL A   1      12.666  51.734  14.954  1.00  0.00    +0.000 H 
ATOM     23  C18 UNL A   1      13.036  51.453  13.990  1.00  0.00    +0.000 C 
BRANCH   23   22
ATOM    114  H16 UNL A   1      13.591  49.522  13.392  1.00  0.00    +0.000 H 
ATOM     22  N4  UNL A   1      12.948  50.001  13.964  1.00  0.00    +0.000 N 
BRANCH   22   20
ATOM     20  C17 UNL A   1      12.043  49.239  14.669  1.00  0.00    +0.000 C 
ATOM     21  O1  UNL A   1      11.713  49.697  15.774  1.00  0.00    +0.000 O 
BRANCH   20   19
ATOM    110  H12 UNL A   1      10.359  47.138  11.022  1.00  0.00    +0.000 H 
ATOM    111  H13 UNL A   1       9.520  47.844  13.058  1.00  0.00    +0.000 H 
ATOM    112  H14 UNL A   1      10.461  49.165  12.646  1.00  0.00    +0.000 H 
ATOM     17  C15 UNL A   1      11.059  47.416  11.782  1.00  0.00    +0.000 C 
ATOM     18  N3  UNL A   1      10.471  48.175  12.892  1.00  0.00    +0.000 N 
ATOM     19  C16 UNL A   1      11.274  47.996  14.127  1.00  0.00    +0.000 C 
ATOM    142  H44 UNL A   1      12.035  46.123  14.884  1.00  0.00    +0.000 H 
ATOM    143  H45 UNL A   1      13.223  47.038  14.040  1.00  0.00    +0.000 H 
ATOM    113  H15 UNL A   1      10.521  47.837  14.871  1.00  0.00    +0.000 H 
ATOM     95  C69 UNL A   1      12.189  46.762  14.040  1.00  0.00    +0.000 C 
ATOM     96  S1  UNL A   1      11.724  45.912  12.512  1.00  0.00    +0.000 S 
BRANCH   17   16
ATOM      6  C6  UNL A   1      11.844  49.434  10.260  1.00  0.00    +0.000 C 
ATOM      7  N1  UNL A   1      13.021  49.926   9.809  1.00  0.00    +0.000 N 
ATOM      8  N2  UNL A   1      13.968  49.247  10.507  1.00  0.00    +0.000 N 
ATOM    109  H11 UNL A   1      13.974  47.447  11.663  1.00  0.00    +0.000 H 
ATOM     15  C13 UNL A   1      13.441  48.186  11.179  1.00  0.00    +0.000 C 
ATOM     16  C14 UNL A   1      12.068  48.276  11.095  1.00  0.00    +0.000 C 
BRANCH    6    5
ATOM     97  C70 UNL A   1       9.385  49.340   9.743  1.00  0.00    +0.000 C 
ATOM      2  C2  UNL A   1       8.060  51.370   9.412  1.00  0.00    +0.000 C 
ATOM      3  C3  UNL A   1       9.224  52.120   9.555  1.00  0.00    +0.000 C 
ATOM      4  C4  UNL A   1      10.443  51.484   9.812  1.00  0.00    +0.000 C 
ATOM     98  C71 UNL A   1       8.153  49.974   9.488  1.00  0.00    +0.000 C 
ATOM    102  H4  UNL A   1       9.187  53.147   9.469  1.00  0.00    +0.000 H 
ATOM      5  C5  UNL A   1      10.550  50.088   9.942  1.00  0.00    +0.000 C 
ATOM    103  H5  UNL A   1      11.293  52.060   9.912  1.00  0.00    +0.000 H 
ATOM    144  H46 UNL A   1       9.429  48.310   9.785  1.00  0.00    +0.000 H 
ATOM    145  H47 UNL A   1       7.306  49.402   9.354  1.00  0.00    +0.000 H 
BRANCH    2    1
ATOM      1  C1  UNL A   1       6.757  52.075   9.181  1.00  0.00    +0.000 C 
ATOM     99  H1  UNL A   1       6.900  52.869   8.477  1.00  0.00    +0.000 H 
ATOM    100  H2  UNL A   1       6.400  52.478  10.106  1.00  0.00    +0.000 H 
ATOM    101  H3  UNL A   1       6.040  51.382   8.794  1.00  0.00    +0.000 H 
ENDBRANCH    2    1
ENDBRANCH    6    5
BRANCH    8    9
ATOM    104  H6  UNL A   1      14.682  51.261  12.044  1.00  0.00    +0.000 H 
ATOM      9  C7  UNL A   1      15.284  49.730  10.705  1.00  0.00    +0.000 C 
ATOM     10  C8  UNL A   1      15.482  50.848  11.538  1.00  0.00    +0.000 C 
ATOM     11  C9  UNL A   1      16.754  51.397  11.681  1.00  0.00    +0.000 C 
ATOM    108  H10 UNL A   1      16.225  48.305   9.461  1.00  0.00    +0.000 H 
ATOM     13  C11 UNL A   1      17.653  49.625  10.301  1.00  0.00    +0.000 C 
ATOM     14  C12 UNL A   1      16.367  49.119  10.079  1.00  0.00    +0.000 C 
ATOM    105  H7  UNL A   1      16.890  52.260  12.233  1.00  0.00    +0.000 H 
ATOM    107  H9  UNL A   1      18.468  49.145   9.891  1.00  0.00    +0.000 H 
ATOM     12  C10 UNL A   1      17.842  50.776  11.075  1.00  0.00    +0.000 C 
ATOM    106  H8  UNL A   1      18.791  51.164  11.196  1.00  0.00    +0.000 H 
ENDBRANCH    8    9
ENDBRANCH   17   16
ENDBRANCH   20   19
ENDBRANCH   22   20
ENDBRANCH   23   22
ENDBRANCH   24   23
ENDBRANCH   25   24
ENDBRANCH   26   25
ENDBRANCH   27   26
ENDBRANCH   28   27
ENDBRANCH   29   28
ENDBRANCH   30   29
ENDBRANCH   32   30
ENDBRANCH   36   35
BRANCH   40   41
ATOM     41  C33 UNL A   1      17.923  54.373   0.891  1.00  0.00    +0.000 C 
ATOM     42  C34 UNL A   1      17.855  54.448  -0.520  1.00  0.00    +0.000 C 
ATOM     43  F1  UNL A   1      17.006  53.684  -1.222  1.00  0.00    +0.000 F 
ATOM     44  C35 UNL A   1      18.676  55.295  -1.275  1.00  0.00    +0.000 C 
ATOM     45  F2  UNL A   1      18.602  55.271  -2.614  1.00  0.00    +0.000 F 
ATOM     46  C36 UNL A   1      19.575  56.137  -0.658  1.00  0.00    +0.000 C 
ATOM     47  F3  UNL A   1      20.372  56.938  -1.377  1.00  0.00    +0.000 F 
ATOM     48  C37 UNL A   1      19.649  56.134   0.715  1.00  0.00    +0.000 C 
ATOM     49  F4  UNL A   1      20.510  56.948   1.342  1.00  0.00    +0.000 F 
ATOM     50  C38 UNL A   1      18.853  55.265   1.467  1.00  0.00    +0.000 C 
ATOM     51  F5  UNL A   1      19.081  55.327   2.779  1.00  0.00    +0.000 F 
ENDBRANCH   40   41
BRANCH   57   58
ATOM     65  C48 UNL A   1      13.557  49.065  -2.313  1.00  0.00    +0.000 C 
ATOM     66  F9  UNL A   1      12.502  49.754  -2.771  1.00  0.00    +0.000 F 
ATOM     67  C49 UNL A   1      13.923  49.171  -0.973  1.00  0.00    +0.000 C 
ATOM     68  F10 UNL A   1      13.142  49.924  -0.183  1.00  0.00    +0.000 F 
ATOM     58  C44 UNL A   1      15.050  48.504  -0.456  1.00  0.00    +0.000 C 
ATOM     59  C45 UNL A   1      15.764  47.688  -1.348  1.00  0.00    +0.000 C 
ATOM     60  F6  UNL A   1      16.858  47.028  -0.941  1.00  0.00    +0.000 F 
ATOM     61  C46 UNL A   1      15.369  47.549  -2.680  1.00  0.00    +0.000 C 
ATOM     62  F7  UNL A   1      16.055  46.738  -3.497  1.00  0.00    +0.000 F 
ATOM     63  C47 UNL A   1      14.278  48.250  -3.165  1.00  0.00    +0.000 C 
ATOM     64  F8  UNL A   1      13.919  48.138  -4.452  1.00  0.00    +0.000 F 
ENDBRANCH   57   58
BRANCH   72   73
ATOM     73  C53 UNL A   1      13.549  47.887   6.548  1.00  0.00    +0.000 C 
ATOM     74  C54 UNL A   1      12.340  48.477   6.134  1.00  0.00    +0.000 C 
ATOM     75  F11 UNL A   1      12.341  49.384   5.143  1.00  0.00    +0.000 F 
ATOM     76  C55 UNL A   1      11.119  48.057   6.650  1.00  0.00    +0.000 C 
ATOM     77  F12 UNL A   1       9.976  48.560   6.160  1.00  0.00    +0.000 F 
ATOM     78  C56 UNL A   1      11.083  47.066   7.617  1.00  0.00    +0.000 C 
ATOM     79  F13 UNL A   1       9.907  46.595   8.053  1.00  0.00    +0.000 F 
ATOM     80  C57 UNL A   1      12.269  46.538   8.106  1.00  0.00    +0.000 C 
ATOM     81  F14 UNL A   1      12.234  45.562   9.025  1.00  0.00    +0.000 F 
ATOM     82  C58 UNL A   1      13.495  46.947   7.582  1.00  0.00    +0.000 C 
ATOM     83  F15 UNL A   1      14.614  46.339   8.004  1.00  0.00    +0.000 F 
ENDBRANCH   72   73
TORSDOF 19
ENDMDL
MODEL 5
REMARK VINA RESULT:      -8.9      1.401      2.554
ROOT
ATOM    130  H32 UNL A   1      18.665  38.014  45.852  1.00  0.00    +0.000 H 
ATOM    131  H33 UNL A   1      19.862  36.699  43.901  1.00  0.00    +0.000 H 
ATOM    132  H34 UNL A   1      19.501  34.183  47.147  1.00  0.00    +0.000 H 
ATOM    133  H35 UNL A   1      22.967  37.829  44.856  1.00  0.00    +0.000 H 
ATOM    134  H36 UNL A   1      21.712  38.119  47.060  1.00  0.00    +0.000 H 
ATOM    135  H37 UNL A   1      25.714  37.405  47.893  1.00  0.00    +0.000 H 
ATOM    136  H38 UNL A   1      25.150  33.095  44.203  1.00  0.00    +0.000 H 
ATOM    137  H39 UNL A   1      22.798  32.107  43.847  1.00  0.00    +0.000 H 
ATOM    138  H40 UNL A   1      19.236  35.922  51.322  1.00  0.00    +0.000 H 
ATOM    139  H41 UNL A   1      21.698  36.500  51.793  1.00  0.00    +0.000 H 
ATOM     36  C29 UNL A   1      23.175  36.911  49.278  1.00  0.00    +0.000 C 
ATOM     37  C30 UNL A   1      21.760  36.587  49.536  1.00  0.00    +0.000 C 
ATOM     38  N6  UNL A   1      20.901  36.326  48.608  1.00  0.00    +0.000 N 
ATOM     39  C31 UNL A   1      19.664  36.231  49.194  1.00  0.00    +0.000 C 
ATOM     40  C32 UNL A   1      18.558  36.346  48.406  1.00  0.00    +0.000 C 
ATOM     52  C39 UNL A   1      18.906  36.193  46.988  1.00  0.00    +0.000 C 
ATOM     53  C40 UNL A   1      19.002  37.038  45.895  1.00  0.00    +0.000 C 
ATOM     54  C41 UNL A   1      19.647  36.326  44.838  1.00  0.00    +0.000 C 
ATOM     55  C42 UNL A   1      19.931  35.049  45.288  1.00  0.00    +0.000 C 
ATOM     56  N7  UNL A   1      19.455  34.987  46.581  1.00  0.00    +0.000 N 
ATOM     57  C43 UNL A   1      20.631  33.901  44.740  1.00  0.00    +0.000 C 
ATOM     69  C50 UNL A   1      21.987  33.990  44.649  1.00  0.00    +0.000 C 
ATOM     70  N8  UNL A   1      22.679  35.097  45.056  1.00  0.00    +0.000 N 
ATOM     71  C51 UNL A   1      23.958  34.850  44.988  1.00  0.00    +0.000 C 
ATOM     72  C52 UNL A   1      25.027  35.760  45.543  1.00  0.00    +0.000 C 
ATOM     84  C59 UNL A   1      24.571  36.919  46.097  1.00  0.00    +0.000 C 
ATOM     85  C60 UNL A   1      23.309  37.562  45.793  1.00  0.00    +0.000 C 
ATOM     86  C61 UNL A   1      22.669  37.747  46.954  1.00  0.00    +0.000 C 
ATOM     87  C62 UNL A   1      23.548  37.334  48.045  1.00  0.00    +0.000 C 
ATOM     88  N9  UNL A   1      24.841  37.259  47.462  1.00  0.00    +0.000 N 
ATOM     89  C63 UNL A   1      24.240  33.532  44.413  1.00  0.00    +0.000 C 
ATOM     90  C64 UNL A   1      23.002  33.042  44.233  1.00  0.00    +0.000 C 
ATOM     91  C65 UNL A   1      19.942  36.156  50.607  1.00  0.00    +0.000 C 
ATOM     92  C66 UNL A   1      21.222  36.426  50.880  1.00  0.00    +0.000 C 
ENDROOT
BRANCH   36   35
ATOM     33  C26 UNL A   1      25.937  35.658  51.439  1.00  0.00    +0.000 C 
ATOM     34  C27 UNL A   1      24.711  35.633  50.785  1.00  0.00    +0.000 C 
ATOM    129  H31 UNL A   1      24.219  34.740  50.623  1.00  0.00    +0.000 H 
ATOM     35  C28 UNL A   1      24.159  36.839  50.354  1.00  0.00    +0.000 C 
ATOM    140  H42 UNL A   1      24.154  38.941  50.625  1.00  0.00    +0.000 H 
ATOM    141  H43 UNL A   1      26.185  38.962  51.974  1.00  0.00    +0.000 H 
ATOM    128  H30 UNL A   1      26.389  34.783  51.748  1.00  0.00    +0.000 H 
ATOM     93  C67 UNL A   1      24.662  38.064  50.821  1.00  0.00    +0.000 C 
ATOM     94  C68 UNL A   1      25.840  38.089  51.543  1.00  0.00    +0.000 C 
ATOM     32  C25 UNL A   1      26.544  36.895  51.668  1.00  0.00    +0.000 C 
BRANCH   32   30
ATOM     30  C24 UNL A   1      28.022  36.944  51.569  1.00  0.00    +0.000 C 
ATOM     31  O2  UNL A   1      28.685  35.953  51.767  1.00  0.00    +0.000 O 
BRANCH   30   29
ATOM     29  N5  UNL A   1      28.578  38.156  51.156  1.00  0.00    +0.000 N 
ATOM    127  H29 UNL A   1      28.356  38.943  51.703  1.00  0.00    +0.000 H 
BRANCH   29   28
ATOM     28  C23 UNL A   1      29.456  38.400  49.999  1.00  0.00    +0.000 C 
ATOM    125  H27 UNL A   1      30.030  37.514  49.828  1.00  0.00    +0.000 H 
ATOM    126  H28 UNL A   1      28.809  38.656  49.186  1.00  0.00    +0.000 H 
BRANCH   28   27
ATOM     27  C22 UNL A   1      30.427  39.570  50.151  1.00  0.00    +0.000 C 
ATOM    124  H26 UNL A   1      30.745  39.780  49.152  1.00  0.00    +0.000 H 
ATOM    123  H25 UNL A   1      31.193  39.259  50.831  1.00  0.00    +0.000 H 
BRANCH   27   26
ATOM    121  H23 UNL A   1      28.959  40.693  51.167  1.00  0.00    +0.000 H 
ATOM     26  C21 UNL A   1      29.879  40.903  50.663  1.00  0.00    +0.000 C 
ATOM    122  H24 UNL A   1      30.669  41.295  51.268  1.00  0.00    +0.000 H 
BRANCH   26   25
ATOM     25  C20 UNL A   1      29.595  42.018  49.644  1.00  0.00    +0.000 C 
ATOM    119  H21 UNL A   1      30.540  42.479  49.446  1.00  0.00    +0.000 H 
ATOM    120  H22 UNL A   1      29.084  41.471  48.879  1.00  0.00    +0.000 H 
BRANCH   25   24
ATOM    117  H19 UNL A   1      29.200  44.054  50.048  1.00  0.00    +0.000 H 
ATOM    118  H20 UNL A   1      27.973  43.121  49.029  1.00  0.00    +0.000 H 
ATOM     24  C19 UNL A   1      28.602  43.179  49.892  1.00  0.00    +0.000 C 
BRANCH   24   23
ATOM    115  H17 UNL A   1      27.072  42.214  50.986  1.00  0.00    +0.000 H 
ATOM    116  H18 UNL A   1      28.152  43.319  51.919  1.00  0.00    +0.000 H 
ATOM     23  C18 UNL A   1      27.580  43.155  51.029  1.00  0.00    +0.000 C 
BRANCH   23   22
ATOM    114  H16 UNL A   1      26.808  45.057  51.454  1.00  0.00    +0.000 H 
ATOM     22  N4  UNL A   1      26.567  44.200  51.035  1.00  0.00    +0.000 N 
BRANCH   22   20
ATOM     20  C17 UNL A   1      25.301  44.091  50.504  1.00  0.00    +0.000 C 
ATOM     21  O1  UNL A   1      24.496  43.438  51.187  1.00  0.00    +0.000 O 
BRANCH   20   19
ATOM    110  H12 UNL A   1      22.982  43.828  46.618  1.00  0.00    +0.000 H 
ATOM    111  H13 UNL A   1      25.077  44.579  47.246  1.00  0.00    +0.000 H 
ATOM    112  H14 UNL A   1      24.989  43.162  48.130  1.00  0.00    +0.000 H 
ATOM     17  C15 UNL A   1      23.173  43.964  47.662  1.00  0.00    +0.000 C 
ATOM     18  N3  UNL A   1      24.595  44.094  48.002  1.00  0.00    +0.000 N 
ATOM     19  C16 UNL A   1      24.760  44.861  49.261  1.00  0.00    +0.000 C 
ATOM    142  H44 UNL A   1      23.748  46.700  49.767  1.00  0.00    +0.000 H 
ATOM    143  H45 UNL A   1      23.036  45.317  50.504  1.00  0.00    +0.000 H 
ATOM    113  H15 UNL A   1      25.564  45.526  49.022  1.00  0.00    +0.000 H 
ATOM     95  C69 UNL A   1      23.499  45.672  49.606  1.00  0.00    +0.000 C 
ATOM     96  S1  UNL A   1      22.401  45.506  48.178  1.00  0.00    +0.000 S 
BRANCH   17   16
ATOM      6  C6  UNL A   1      23.224  41.427  48.413  1.00  0.00    +0.000 C 
ATOM      7  N1  UNL A   1      22.405  40.583  49.085  1.00  0.00    +0.000 N 
ATOM      8  N2  UNL A   1      21.435  41.382  49.599  1.00  0.00    +0.000 N 
ATOM    109  H11 UNL A   1      20.761  43.372  49.195  1.00  0.00    +0.000 H 
ATOM     15  C13 UNL A   1      21.472  42.635  49.067  1.00  0.00    +0.000 C 
ATOM     16  C14 UNL A   1      22.630  42.741  48.326  1.00  0.00    +0.000 C 
BRANCH    6    5
ATOM     97  C70 UNL A   1      25.618  40.762  48.797  1.00  0.00    +0.000 C 
ATOM      2  C2  UNL A   1      27.079  40.091  46.954  1.00  0.00    +0.000 C 
ATOM      3  C3  UNL A   1      26.045  40.372  46.066  1.00  0.00    +0.000 C 
ATOM      4  C4  UNL A   1      24.809  40.819  46.547  1.00  0.00    +0.000 C 
ATOM     98  C71 UNL A   1      26.863  40.308  48.321  1.00  0.00    +0.000 C 
ATOM    102  H4  UNL A   1      26.190  40.253  45.052  1.00  0.00    +0.000 H 
ATOM      5  C5  UNL A   1      24.555  40.996  47.918  1.00  0.00    +0.000 C 
ATOM    103  H5  UNL A   1      24.057  41.024  45.870  1.00  0.00    +0.000 H 
ATOM    144  H46 UNL A   1      25.487  40.923  49.807  1.00  0.00    +0.000 H 
ATOM    145  H47 UNL A   1      27.629  40.133  48.989  1.00  0.00    +0.000 H 
BRANCH    2    1
ATOM      1  C1  UNL A   1      28.381  39.570  46.420  1.00  0.00    +0.000 C 
ATOM     99  H1  UNL A   1      28.964  40.385  46.043  1.00  0.00    +0.000 H 
ATOM    100  H2  UNL A   1      28.190  38.872  45.632  1.00  0.00    +0.000 H 
ATOM    101  H3  UNL A   1      28.919  39.082  47.206  1.00  0.00    +0.000 H 
ENDBRANCH    2    1
ENDBRANCH    6    5
BRANCH    8    9
ATOM    104  H6  UNL A   1      22.074  39.649  51.474  1.00  0.00    +0.000 H 
ATOM      9  C7  UNL A   1      20.648  41.026  50.720  1.00  0.00    +0.000 C 
ATOM     10  C8  UNL A   1      21.131  40.046  51.609  1.00  0.00    +0.000 C 
ATOM     11  C9  UNL A   1      20.340  39.614  52.671  1.00  0.00    +0.000 C 
ATOM    108  H10 UNL A   1      19.048  42.335  50.284  1.00  0.00    +0.000 H 
ATOM     13  C11 UNL A   1      18.662  41.244  52.060  1.00  0.00    +0.000 C 
ATOM     14  C12 UNL A   1      19.409  41.623  50.939  1.00  0.00    +0.000 C 
ATOM    105  H7  UNL A   1      20.663  38.845  53.281  1.00  0.00    +0.000 H 
ATOM    107  H9  UNL A   1      17.771  41.722  52.265  1.00  0.00    +0.000 H 
ATOM     12  C10 UNL A   1      19.112  40.224  52.906  1.00  0.00    +0.000 C 
ATOM    106  H8  UNL A   1      18.531  39.925  53.704  1.00  0.00    +0.000 H 
ENDBRANCH    8    9
ENDBRANCH   17   16
ENDBRANCH   20   19
ENDBRANCH   22   20
ENDBRANCH   23   22
ENDBRANCH   24   23
ENDBRANCH   25   24
ENDBRANCH   26   25
ENDBRANCH   27   26
ENDBRANCH   28   27
ENDBRANCH   29   28
ENDBRANCH   30   29
ENDBRANCH   32   30
ENDBRANCH   36   35
BRANCH   40   41
ATOM     41  C33 UNL A   1      17.168  36.749  48.874  1.00  0.00    +0.000 C 
ATOM     42  C34 UNL A   1      16.027  36.293  48.173  1.00  0.00    +0.000 C 
ATOM     43  F1  UNL A   1      16.128  35.406  47.174  1.00  0.00    +0.000 F 
ATOM     44  C35 UNL A   1      14.732  36.748  48.453  1.00  0.00    +0.000 C 
ATOM     45  F2  UNL A   1      13.703  36.320  47.708  1.00  0.00    +0.000 F 
ATOM     46  C36 UNL A   1      14.508  37.649  49.471  1.00  0.00    +0.000 C 
ATOM     47  F3  UNL A   1      13.274  38.098  49.732  1.00  0.00    +0.000 F 
ATOM     48  C37 UNL A   1      15.579  38.090  50.211  1.00  0.00    +0.000 C 
ATOM     49  F4  UNL A   1      15.389  38.962  51.212  1.00  0.00    +0.000 F 
ATOM     50  C38 UNL A   1      16.875  37.662  49.911  1.00  0.00    +0.000 C 
ATOM     51  F5  UNL A   1      17.817  38.224  50.668  1.00  0.00    +0.000 F 
ENDBRANCH   40   41
BRANCH   57   58
ATOM     65  C48 UNL A   1      19.288  30.334  44.673  1.00  0.00    +0.000 C 
ATOM     66  F9  UNL A   1      19.515  29.177  45.313  1.00  0.00    +0.000 F 
ATOM     67  C49 UNL A   1      20.096  31.438  44.933  1.00  0.00    +0.000 C 
ATOM     68  F10 UNL A   1      21.121  31.260  45.781  1.00  0.00    +0.000 F 
ATOM     58  C44 UNL A   1      19.868  32.686  44.323  1.00  0.00    +0.000 C 
ATOM     59  C45 UNL A   1      18.811  32.752  43.402  1.00  0.00    +0.000 C 
ATOM     60  F6  UNL A   1      18.516  33.907  42.785  1.00  0.00    +0.000 F 
ATOM     61  C46 UNL A   1      18.030  31.633  43.110  1.00  0.00    +0.000 C 
ATOM     62  F7  UNL A   1      17.047  31.724  42.203  1.00  0.00    +0.000 F 
ATOM     63  C47 UNL A   1      18.257  30.430  43.758  1.00  0.00    +0.000 C 
ATOM     64  F8  UNL A   1      17.485  29.366  43.499  1.00  0.00    +0.000 F 
ENDBRANCH   57   58
BRANCH   72   73
ATOM     73  C53 UNL A   1      26.312  35.312  46.132  1.00  0.00    +0.000 C 
ATOM     74  C54 UNL A   1      27.498  35.939  45.702  1.00  0.00    +0.000 C 
ATOM     75  F11 UNL A   1      27.508  36.643  44.559  1.00  0.00    +0.000 F 
ATOM     76  C55 UNL A   1      28.638  35.945  46.498  1.00  0.00    +0.000 C 
ATOM     77  F12 UNL A   1      29.718  36.642  46.114  1.00  0.00    +0.000 F 
ATOM     78  C56 UNL A   1      28.630  35.294  47.720  1.00  0.00    +0.000 C 
ATOM     79  F13 UNL A   1      29.695  35.372  48.530  1.00  0.00    +0.000 F 
ATOM     80  C57 UNL A   1      27.502  34.591  48.119  1.00  0.00    +0.000 C 
ATOM     81  F14 UNL A   1      27.486  33.980  49.312  1.00  0.00    +0.000 F 
ATOM     82  C58 UNL A   1      26.352  34.593  47.329  1.00  0.00    +0.000 C 
ATOM     83  F15 UNL A   1      25.248  33.991  47.796  1.00  0.00    +0.000 F 
ENDBRANCH   72   73
TORSDOF 19
ENDMDL
MODEL 6
REMARK VINA RESULT:      -8.9     46.903     52.256
ROOT
ATOM    130  H32 UNL A   1      52.826  14.428   6.522  1.00  0.00    +0.000 H 
ATOM    131  H33 UNL A   1      50.883  15.399   8.020  1.00  0.00    +0.000 H 
ATOM    132  H34 UNL A   1      51.975  18.270   5.270  1.00  0.00    +0.000 H 
ATOM    133  H35 UNL A   1      53.094  16.535  10.397  1.00  0.00    +0.000 H 
ATOM    134  H36 UNL A   1      54.661  16.407   8.385  1.00  0.00    +0.000 H 
ATOM    135  H37 UNL A   1      56.004  19.398  10.928  1.00  0.00    +0.000 H 
ATOM    136  H38 UNL A   1      50.567  21.115  10.898  1.00  0.00    +0.000 H 
ATOM    137  H39 UNL A   1      49.111  20.484   8.870  1.00  0.00    +0.000 H 
ATOM    138  H40 UNL A   1      56.163  18.250   3.541  1.00  0.00    +0.000 H 
ATOM    139  H41 UNL A   1      57.515  19.295   5.464  1.00  0.00    +0.000 H 
ATOM     36  C29 UNL A   1      56.147  18.895   8.042  1.00  0.00    +0.000 C 
ATOM     37  C30 UNL A   1      55.793  18.473   6.674  1.00  0.00    +0.000 C 
ATOM     38  N6  UNL A   1      54.684  17.888   6.366  1.00  0.00    +0.000 N 
ATOM     39  C31 UNL A   1      54.763  17.500   5.052  1.00  0.00    +0.000 C 
ATOM     40  C32 UNL A   1      53.904  16.542   4.602  1.00  0.00    +0.000 C 
ATOM     52  C39 UNL A   1      52.792  16.351   5.540  1.00  0.00    +0.000 C 
ATOM     53  C40 UNL A   1      52.416  15.373   6.446  1.00  0.00    +0.000 C 
ATOM     54  C41 UNL A   1      51.362  15.897   7.254  1.00  0.00    +0.000 C 
ATOM     55  C42 UNL A   1      51.095  17.187   6.832  1.00  0.00    +0.000 C 
ATOM     56  N7  UNL A   1      51.956  17.430   5.783  1.00  0.00    +0.000 N 
ATOM     57  C43 UNL A   1      50.219  18.253   7.286  1.00  0.00    +0.000 C 
ATOM     69  C50 UNL A   1      50.561  18.882   8.445  1.00  0.00    +0.000 C 
ATOM     70  N8  UNL A   1      51.676  18.547   9.161  1.00  0.00    +0.000 N 
ATOM     71  C51 UNL A   1      51.831  19.401  10.134  1.00  0.00    +0.000 C 
ATOM     72  C52 UNL A   1      53.058  19.471  11.013  1.00  0.00    +0.000 C 
ATOM     84  C59 UNL A   1      54.009  18.529  10.755  1.00  0.00    +0.000 C 
ATOM     85  C60 UNL A   1      53.781  17.251  10.112  1.00  0.00    +0.000 C 
ATOM     86  C61 UNL A   1      54.630  17.171   9.079  1.00  0.00    +0.000 C 
ATOM     87  C62 UNL A   1      55.503  18.341   9.098  1.00  0.00    +0.000 C 
ATOM     88  N9  UNL A   1      55.348  18.890  10.399  1.00  0.00    +0.000 N 
ATOM     89  C63 UNL A   1      50.729  20.363  10.211  1.00  0.00    +0.000 C 
ATOM     90  C64 UNL A   1      49.984  20.011   9.149  1.00  0.00    +0.000 C 
ATOM     91  C65 UNL A   1      55.915  18.200   4.541  1.00  0.00    +0.000 C 
ATOM     92  C66 UNL A   1      56.624  18.777   5.517  1.00  0.00    +0.000 C 
ENDROOT
BRANCH   36   35
ATOM     33  C26 UNL A   1      57.913  22.098   8.745  1.00  0.00    +0.000 C 
ATOM     34  C27 UNL A   1      57.053  21.228   8.085  1.00  0.00    +0.000 C 
ATOM    129  H31 UNL A   1      56.304  21.591   7.475  1.00  0.00    +0.000 H 
ATOM     35  C28 UNL A   1      57.224  19.855   8.264  1.00  0.00    +0.000 C 
ATOM    140  H42 UNL A   1      58.589  18.335   8.828  1.00  0.00    +0.000 H 
ATOM    141  H43 UNL A   1      60.213  19.883   9.780  1.00  0.00    +0.000 H 
ATOM    128  H30 UNL A   1      57.800  23.120   8.659  1.00  0.00    +0.000 H 
ATOM     93  C67 UNL A   1      58.400  19.349   8.842  1.00  0.00    +0.000 C 
ATOM     94  C68 UNL A   1      59.302  20.216   9.429  1.00  0.00    +0.000 C 
ATOM     32  C25 UNL A   1      58.935  21.555   9.530  1.00  0.00    +0.000 C 
BRANCH   32   30
ATOM     30  C24 UNL A   1      59.278  22.281  10.776  1.00  0.00    +0.000 C 
ATOM     31  O2  UNL A   1      58.945  23.433  10.929  1.00  0.00    +0.000 O 
BRANCH   30   29
ATOM     29  N5  UNL A   1      59.919  21.539  11.770  1.00  0.00    +0.000 N 
ATOM    127  H29 UNL A   1      59.349  20.926  12.288  1.00  0.00    +0.000 H 
BRANCH   29   28
ATOM     28  C23 UNL A   1      61.344  21.563  12.138  1.00  0.00    +0.000 C 
ATOM    125  H27 UNL A   1      61.902  21.154  11.323  1.00  0.00    +0.000 H 
ATOM    126  H28 UNL A   1      61.577  22.586  12.349  1.00  0.00    +0.000 H 
BRANCH   28   27
ATOM     27  C22 UNL A   1      61.707  20.780  13.399  1.00  0.00    +0.000 C 
ATOM    124  H26 UNL A   1      62.579  20.225  13.124  1.00  0.00    +0.000 H 
ATOM    123  H25 UNL A   1      60.849  20.199  13.669  1.00  0.00    +0.000 H 
BRANCH   27   26
ATOM    121  H23 UNL A   1      61.935  20.942  15.489  1.00  0.00    +0.000 H 
ATOM     26  C21 UNL A   1      62.132  21.564  14.641  1.00  0.00    +0.000 C 
ATOM    122  H24 UNL A   1      63.158  21.804  14.460  1.00  0.00    +0.000 H 
BRANCH   26   25
ATOM     25  C20 UNL A   1      61.468  22.924  14.911  1.00  0.00    +0.000 C 
ATOM    119  H21 UNL A   1      62.062  23.646  14.390  1.00  0.00    +0.000 H 
ATOM    120  H22 UNL A   1      60.461  22.725  14.610  1.00  0.00    +0.000 H 
BRANCH   25   24
ATOM    117  H19 UNL A   1      61.103  22.666  16.976  1.00  0.00    +0.000 H 
ATOM    118  H20 UNL A   1      62.106  24.126  16.451  1.00  0.00    +0.000 H 
ATOM     24  C19 UNL A   1      61.244  23.507  16.328  1.00  0.00    +0.000 C 
BRANCH   24   23
ATOM    115  H17 UNL A   1      60.207  24.773  17.666  1.00  0.00    +0.000 H 
ATOM    116  H18 UNL A   1      60.219  25.275  15.933  1.00  0.00    +0.000 H 
ATOM     23  C18 UNL A   1      60.108  24.481  16.642  1.00  0.00    +0.000 C 
BRANCH   23   22
ATOM    114  H16 UNL A   1      58.127  24.582  15.962  1.00  0.00    +0.000 H 
ATOM     22  N4  UNL A   1      58.748  23.998  16.454  1.00  0.00    +0.000 N 
BRANCH   22   20
ATOM     20  C17 UNL A   1      58.255  22.795  16.907  1.00  0.00    +0.000 C 
ATOM     21  O1  UNL A   1      57.941  21.984  16.021  1.00  0.00    +0.000 O 
BRANCH   20   19
ATOM    110  H12 UNL A   1      56.278  20.123  19.990  1.00  0.00    +0.000 H 
ATOM    111  H13 UNL A   1      56.779  22.376  19.832  1.00  0.00    +0.000 H 
ATOM    112  H14 UNL A   1      56.207  22.085  18.287  1.00  0.00    +0.000 H 
ATOM     17  C15 UNL A   1      56.954  20.433  19.221  1.00  0.00    +0.000 C 
ATOM     18  N3  UNL A   1      56.946  21.877  18.958  1.00  0.00    +0.000 N 
ATOM     19  C16 UNL A   1      58.247  22.308  18.388  1.00  0.00    +0.000 C 
ATOM    142  H44 UNL A   1      60.199  21.738  19.112  1.00  0.00    +0.000 H 
ATOM    143  H45 UNL A   1      59.704  20.832  17.735  1.00  0.00    +0.000 H 
ATOM    113  H15 UNL A   1      58.452  23.204  18.936  1.00  0.00    +0.000 H 
ATOM     95  C69 UNL A   1      59.355  21.273  18.646  1.00  0.00    +0.000 C 
ATOM     96  S1  UNL A   1      58.628  20.038  19.750  1.00  0.00    +0.000 S 
BRANCH   17   16
ATOM      6  C6  UNL A   1      55.183  19.678  17.405  1.00  0.00    +0.000 C 
ATOM      7  N1  UNL A   1      55.181  18.902  16.296  1.00  0.00    +0.000 N 
ATOM      8  N2  UNL A   1      56.492  18.641  16.055  1.00  0.00    +0.000 N 
ATOM    109  H11 UNL A   1      58.285  18.784  17.214  1.00  0.00    +0.000 H 
ATOM     15  C13 UNL A   1      57.282  19.004  17.103  1.00  0.00    +0.000 C 
ATOM     16  C14 UNL A   1      56.504  19.718  17.989  1.00  0.00    +0.000 C 
BRANCH    6    5
ATOM     97  C70 UNL A   1      53.370  21.387  17.067  1.00  0.00    +0.000 C 
ATOM      2  C2  UNL A   1      51.585  21.712  18.708  1.00  0.00    +0.000 C 
ATOM      3  C3  UNL A   1      52.201  20.769  19.525  1.00  0.00    +0.000 C 
ATOM      4  C4  UNL A   1      53.371  20.130  19.102  1.00  0.00    +0.000 C 
ATOM     98  C71 UNL A   1      52.189  22.031  17.485  1.00  0.00    +0.000 C 
ATOM    102  H4  UNL A   1      51.795  20.541  20.446  1.00  0.00    +0.000 H 
ATOM      5  C5  UNL A   1      53.966  20.398  17.857  1.00  0.00    +0.000 C 
ATOM    103  H5  UNL A   1      53.812  19.435  19.725  1.00  0.00    +0.000 H 
ATOM    144  H46 UNL A   1      53.800  21.646  16.166  1.00  0.00    +0.000 H 
ATOM    145  H47 UNL A   1      51.762  22.750  16.881  1.00  0.00    +0.000 H 
BRANCH    2    1
ATOM      1  C1  UNL A   1      50.307  22.351  19.162  1.00  0.00    +0.000 C 
ATOM     99  H1  UNL A   1      50.066  23.170  18.515  1.00  0.00    +0.000 H 
ATOM    100  H2  UNL A   1      50.423  22.710  20.164  1.00  0.00    +0.000 H 
ATOM    101  H3  UNL A   1      49.516  21.630  19.132  1.00  0.00    +0.000 H 
ENDBRANCH    2    1
ENDBRANCH    6    5
BRANCH    8    9
ATOM    104  H6  UNL A   1      55.521  16.770  14.479  1.00  0.00    +0.000 H 
ATOM      9  C7  UNL A   1      56.991  18.270  14.784  1.00  0.00    +0.000 C 
ATOM     10  C8  UNL A   1      56.367  17.215  14.089  1.00  0.00    +0.000 C 
ATOM     11  C9  UNL A   1      56.891  16.770  12.877  1.00  0.00    +0.000 C 
ATOM    108  H10 UNL A   1      58.551  19.693  14.740  1.00  0.00    +0.000 H 
ATOM     13  C11 UNL A   1      58.548  18.529  12.969  1.00  0.00    +0.000 C 
ATOM     14  C12 UNL A   1      58.086  18.926  14.230  1.00  0.00    +0.000 C 
ATOM    105  H7  UNL A   1      56.479  15.951  12.402  1.00  0.00    +0.000 H 
ATOM    107  H9  UNL A   1      59.320  19.047  12.523  1.00  0.00    +0.000 H 
ATOM     12  C10 UNL A   1      57.971  17.438  12.310  1.00  0.00    +0.000 C 
ATOM    106  H8  UNL A   1      58.349  17.129  11.400  1.00  0.00    +0.000 H 
ENDBRANCH    8    9
ENDBRANCH   17   16
ENDBRANCH   20   19
ENDBRANCH   22   20
ENDBRANCH   23   22
ENDBRANCH   24   23
ENDBRANCH   25   24
ENDBRANCH   26   25
ENDBRANCH   27   26
ENDBRANCH   28   27
ENDBRANCH   29   28
ENDBRANCH   30   29
ENDBRANCH   32   30
ENDBRANCH   36   35
BRANCH   40   41
ATOM     41  C33 UNL A   1      54.123  15.649   3.390  1.00  0.00    +0.000 C 
ATOM     42  C34 UNL A   1      53.027  15.295   2.568  1.00  0.00    +0.000 C 
ATOM     43  F1  UNL A   1      51.811  15.828   2.753  1.00  0.00    +0.000 F 
ATOM     44  C35 UNL A   1      53.127  14.356   1.534  1.00  0.00    +0.000 C 
ATOM     45  F2  UNL A   1      52.034  14.021   0.833  1.00  0.00    +0.000 F 
ATOM     46  C36 UNL A   1      54.332  13.756   1.243  1.00  0.00    +0.000 C 
ATOM     47  F3  UNL A   1      54.429  12.847   0.263  1.00  0.00    +0.000 F 
ATOM     48  C37 UNL A   1      55.438  14.098   1.984  1.00  0.00    +0.000 C 
ATOM     49  F4  UNL A   1      56.625  13.535   1.719  1.00  0.00    +0.000 F 
ATOM     50  C38 UNL A   1      55.331  15.011   3.038  1.00  0.00    +0.000 C 
ATOM     51  F5  UNL A   1      56.469  15.194   3.708  1.00  0.00    +0.000 F 
ENDBRANCH   40   41
BRANCH   57   58
ATOM     65  C48 UNL A   1      46.739  18.136   5.733  1.00  0.00    +0.000 C 
ATOM     66  F9  UNL A   1      45.714  17.274   5.661  1.00  0.00    +0.000 F 
ATOM     67  C49 UNL A   1      47.931  17.745   6.340  1.00  0.00    +0.000 C 
ATOM     68  F10 UNL A   1      48.011  16.477   6.770  1.00  0.00    +0.000 F 
ATOM     58  C44 UNL A   1      49.017  18.630   6.482  1.00  0.00    +0.000 C 
ATOM     59  C45 UNL A   1      48.857  19.915   5.940  1.00  0.00    +0.000 C 
ATOM     60  F6  UNL A   1      49.838  20.824   6.044  1.00  0.00    +0.000 F 
ATOM     61  C46 UNL A   1      47.679  20.290   5.294  1.00  0.00    +0.000 C 
ATOM     62  F7  UNL A   1      47.572  21.516   4.762  1.00  0.00    +0.000 F 
ATOM     63  C47 UNL A   1      46.615  19.408   5.206  1.00  0.00    +0.000 C 
ATOM     64  F8  UNL A   1      45.473  19.781   4.612  1.00  0.00    +0.000 F 
ENDBRANCH   57   58
BRANCH   72   73
ATOM     73  C53 UNL A   1      53.623  20.711  11.595  1.00  0.00    +0.000 C 
ATOM     74  C54 UNL A   1      54.082  20.674  12.926  1.00  0.00    +0.000 C 
ATOM     75  F11 UNL A   1      53.692  19.682  13.742  1.00  0.00    +0.000 F 
ATOM     76  C55 UNL A   1      55.029  21.583  13.387  1.00  0.00    +0.000 C 
ATOM     77  F12 UNL A   1      55.528  21.458  14.625  1.00  0.00    +0.000 F 
ATOM     78  C56 UNL A   1      55.508  22.569  12.541  1.00  0.00    +0.000 C 
ATOM     79  F13 UNL A   1      56.484  23.389  12.951  1.00  0.00    +0.000 F 
ATOM     80  C57 UNL A   1      54.999  22.680  11.255  1.00  0.00    +0.000 C 
ATOM     81  F14 UNL A   1      55.480  23.620  10.429  1.00  0.00    +0.000 F 
ATOM     82  C58 UNL A   1      54.059  21.763  10.785  1.00  0.00    +0.000 C 
ATOM     83  F15 UNL A   1      53.668  21.838   9.504  1.00  0.00    +0.000 F 
ENDBRANCH   72   73
TORSDOF 19
ENDMDL
MODEL 7
REMARK VINA RESULT:      -8.9      1.259      2.065
ROOT
ATOM    130  H32 UNL A   1      18.339  38.077  45.634  1.00  0.00    +0.000 H 
ATOM    131  H33 UNL A   1      19.419  36.638  43.703  1.00  0.00    +0.000 H 
ATOM    132  H34 UNL A   1      18.970  34.242  47.028  1.00  0.00    +0.000 H 
ATOM    133  H35 UNL A   1      22.603  37.607  44.572  1.00  0.00    +0.000 H 
ATOM    134  H36 UNL A   1      21.408  38.035  46.788  1.00  0.00    +0.000 H 
ATOM    135  H37 UNL A   1      25.376  37.106  47.574  1.00  0.00    +0.000 H 
ATOM    136  H38 UNL A   1      24.489  32.733  44.024  1.00  0.00    +0.000 H 
ATOM    137  H39 UNL A   1      22.076  31.879  43.737  1.00  0.00    +0.000 H 
ATOM    138  H40 UNL A   1      18.886  36.112  51.154  1.00  0.00    +0.000 H 
ATOM    139  H41 UNL A   1      21.386  36.555  51.566  1.00  0.00    +0.000 H 
ATOM     36  C29 UNL A   1      22.838  36.805  49.015  1.00  0.00    +0.000 C 
ATOM     37  C30 UNL A   1      21.412  36.574  49.306  1.00  0.00    +0.000 C 
ATOM     38  N6  UNL A   1      20.521  36.338  48.401  1.00  0.00    +0.000 N 
ATOM     39  C31 UNL A   1      19.292  36.334  49.011  1.00  0.00    +0.000 C 
ATOM     40  C32 UNL A   1      18.180  36.493  48.238  1.00  0.00    +0.000 C 
ATOM     52  C39 UNL A   1      18.492  36.279  46.819  1.00  0.00    +0.000 C 
ATOM     53  C40 UNL A   1      18.618  37.085  45.700  1.00  0.00    +0.000 C 
ATOM     54  C41 UNL A   1      19.200  36.306  44.655  1.00  0.00    +0.000 C 
ATOM     55  C42 UNL A   1      19.416  35.028  45.138  1.00  0.00    +0.000 C 
ATOM     56  N7  UNL A   1      18.961  35.031  46.440  1.00  0.00    +0.000 N 
ATOM     57  C43 UNL A   1      20.037  33.824  44.612  1.00  0.00    +0.000 C 
ATOM     69  C50 UNL A   1      21.394  33.829  44.496  1.00  0.00    +0.000 C 
ATOM     70  N8  UNL A   1      22.158  34.904  44.858  1.00  0.00    +0.000 N 
ATOM     71  C51 UNL A   1      23.418  34.579  44.776  1.00  0.00    +0.000 C 
ATOM     72  C52 UNL A   1      24.550  35.438  45.286  1.00  0.00    +0.000 C 
ATOM     84  C59 UNL A   1      24.173  36.638  45.813  1.00  0.00    +0.000 C 
ATOM     85  C60 UNL A   1      22.946  37.347  45.511  1.00  0.00    +0.000 C 
ATOM     86  C61 UNL A   1      22.340  37.603  46.677  1.00  0.00    +0.000 C 
ATOM     87  C62 UNL A   1      23.213  37.169  47.765  1.00  0.00    +0.000 C 
ATOM     88  N9  UNL A   1      24.488  37.000  47.162  1.00  0.00    +0.000 N 
ATOM     89  C63 UNL A   1      23.610  33.230  44.236  1.00  0.00    +0.000 C 
ATOM     90  C64 UNL A   1      22.342  32.810  44.091  1.00  0.00    +0.000 C 
ATOM     91  C65 UNL A   1      19.591  36.284  50.420  1.00  0.00    +0.000 C 
ATOM     92  C66 UNL A   1      20.890  36.484  50.664  1.00  0.00    +0.000 C 
ENDROOT
BRANCH   36   35
ATOM     33  C26 UNL A   1      24.812  37.600  52.072  1.00  0.00    +0.000 C 
ATOM     34  C27 UNL A   1      24.258  37.811  50.815  1.00  0.00    +0.000 C 
ATOM    129  H31 UNL A   1      24.161  38.766  50.436  1.00  0.00    +0.000 H 
ATOM     35  C28 UNL A   1      23.836  36.705  50.077  1.00  0.00    +0.000 C 
ATOM    140  H42 UNL A   1      24.045  34.613  49.811  1.00  0.00    +0.000 H 
ATOM    141  H43 UNL A   1      25.229  34.274  51.914  1.00  0.00    +0.000 H 
ATOM    128  H30 UNL A   1      25.110  38.395  52.658  1.00  0.00    +0.000 H 
ATOM     93  C67 UNL A   1      24.225  35.407  50.444  1.00  0.00    +0.000 C 
ATOM     94  C68 UNL A   1      24.853  35.200  51.658  1.00  0.00    +0.000 C 
ATOM     32  C25 UNL A   1      24.956  36.286  52.523  1.00  0.00    +0.000 C 
BRANCH   32   30
ATOM     30  C24 UNL A   1      24.740  36.048  53.970  1.00  0.00    +0.000 C 
ATOM     31  O2  UNL A   1      23.648  36.209  54.464  1.00  0.00    +0.000 O 
BRANCH   30   29
ATOM     29  N5  UNL A   1      25.830  35.553  54.688  1.00  0.00    +0.000 N 
ATOM    127  H29 UNL A   1      25.669  35.353  55.638  1.00  0.00    +0.000 H 
BRANCH   29   28
ATOM     28  C23 UNL A   1      27.194  35.295  54.196  1.00  0.00    +0.000 C 
ATOM    125  H27 UNL A   1      27.546  34.397  54.656  1.00  0.00    +0.000 H 
ATOM    126  H28 UNL A   1      27.115  35.230  53.130  1.00  0.00    +0.000 H 
BRANCH   28   27
ATOM     27  C22 UNL A   1      28.210  36.401  54.477  1.00  0.00    +0.000 C 
ATOM    124  H26 UNL A   1      29.156  35.950  54.265  1.00  0.00    +0.000 H 
ATOM    123  H25 UNL A   1      28.060  36.719  55.489  1.00  0.00    +0.000 H 
BRANCH   27   26
ATOM    121  H23 UNL A   1      27.190  38.053  53.655  1.00  0.00    +0.000 H 
ATOM     26  C21 UNL A   1      28.181  37.652  53.599  1.00  0.00    +0.000 C 
ATOM    122  H24 UNL A   1      28.962  38.267  53.993  1.00  0.00    +0.000 H 
BRANCH   26   25
ATOM     25  C20 UNL A   1      28.529  37.509  52.109  1.00  0.00    +0.000 C 
ATOM    119  H21 UNL A   1      29.593  37.395  52.068  1.00  0.00    +0.000 H 
ATOM    120  H22 UNL A   1      27.883  36.705  51.823  1.00  0.00    +0.000 H 
BRANCH   25   24
ATOM    117  H19 UNL A   1      28.788  38.344  50.185  1.00  0.00    +0.000 H 
ATOM    118  H20 UNL A   1      27.116  38.464  50.962  1.00  0.00    +0.000 H 
ATOM     24  C19 UNL A   1      28.178  38.568  51.036  1.00  0.00    +0.000 C 
BRANCH   24   23
ATOM    115  H17 UNL A   1      28.066  40.255  52.305  1.00  0.00    +0.000 H 
ATOM    116  H18 UNL A   1      29.348  40.289  51.035  1.00  0.00    +0.000 H 
ATOM     23  C18 UNL A   1      28.331  40.069  51.285  1.00  0.00    +0.000 C 
BRANCH   23   22
ATOM    114  H16 UNL A   1      27.049  40.564  49.702  1.00  0.00    +0.000 H 
ATOM     22  N4  UNL A   1      27.538  40.964  50.457  1.00  0.00    +0.000 N 
BRANCH   22   20
ATOM     20  C17 UNL A   1      27.413  42.324  50.638  1.00  0.00    +0.000 C 
ATOM     21  O1  UNL A   1      27.165  42.683  51.799  1.00  0.00    +0.000 O 
BRANCH   20   19
ATOM    110  H12 UNL A   1      26.873  43.734  46.363  1.00  0.00    +0.000 H 
ATOM    111  H13 UNL A   1      28.675  43.306  47.748  1.00  0.00    +0.000 H 
ATOM    112  H14 UNL A   1      27.702  41.993  48.106  1.00  0.00    +0.000 H 
ATOM     17  C15 UNL A   1      26.684  43.617  47.409  1.00  0.00    +0.000 C 
ATOM     18  N3  UNL A   1      27.790  43.008  48.157  1.00  0.00    +0.000 N 
ATOM     19  C16 UNL A   1      27.744  43.422  49.582  1.00  0.00    +0.000 C 
ATOM    142  H44 UNL A   1      27.430  45.430  50.309  1.00  0.00    +0.000 H 
ATOM    143  H45 UNL A   1      26.006  44.465  50.368  1.00  0.00    +0.000 H 
ATOM    113  H15 UNL A   1      28.769  43.651  49.787  1.00  0.00    +0.000 H 
ATOM     95  C69 UNL A   1      26.878  44.677  49.785  1.00  0.00    +0.000 C 
ATOM     96  S1  UNL A   1      26.448  45.252  48.124  1.00  0.00    +0.000 S 
BRANCH   17   16
ATOM      6  C6  UNL A   1      25.386  41.329  47.123  1.00  0.00    +0.000 C 
ATOM      7  N1  UNL A   1      24.129  40.877  47.340  1.00  0.00    +0.000 N 
ATOM      8  N2  UNL A   1      23.520  41.873  48.034  1.00  0.00    +0.000 N 
ATOM    109  H11 UNL A   1      23.948  43.942  48.371  1.00  0.00    +0.000 H 
ATOM     15  C13 UNL A   1      24.258  43.017  48.033  1.00  0.00    +0.000 C 
ATOM     16  C14 UNL A   1      25.493  42.720  47.498  1.00  0.00    +0.000 C 
BRANCH    6    5
ATOM     97  C70 UNL A   1      27.109  40.688  45.407  1.00  0.00    +0.000 C 
ATOM      2  C2  UNL A   1      28.579  38.758  45.717  1.00  0.00    +0.000 C 
ATOM      3  C3  UNL A   1      27.906  38.469  46.900  1.00  0.00    +0.000 C 
ATOM      4  C4  UNL A   1      26.866  39.296  47.336  1.00  0.00    +0.000 C 
ATOM     98  C71 UNL A   1      28.160  39.862  44.963  1.00  0.00    +0.000 C 
ATOM    102  H4  UNL A   1      28.173  37.641  47.455  1.00  0.00    +0.000 H 
ATOM      5  C5  UNL A   1      26.462  40.437  46.621  1.00  0.00    +0.000 C 
ATOM    103  H5  UNL A   1      26.379  39.061  48.215  1.00  0.00    +0.000 H 
ATOM    144  H46 UNL A   1      26.812  41.489  44.829  1.00  0.00    +0.000 H 
ATOM    145  H47 UNL A   1      28.628  40.072  44.069  1.00  0.00    +0.000 H 
BRANCH    2    1
ATOM      1  C1  UNL A   1      29.720  37.883  45.291  1.00  0.00    +0.000 C 
ATOM     99  H1  UNL A   1      30.642  38.300  45.642  1.00  0.00    +0.000 H 
ATOM    100  H2  UNL A   1      29.742  37.818  44.223  1.00  0.00    +0.000 H 
ATOM    101  H3  UNL A   1      29.593  36.904  45.704  1.00  0.00    +0.000 H 
ENDBRANCH    2    1
ENDBRANCH    6    5
BRANCH    8    9
ATOM    104  H6  UNL A   1      22.503  39.553  48.747  1.00  0.00    +0.000 H 
ATOM      9  C7  UNL A   1      22.385  41.668  48.854  1.00  0.00    +0.000 C 
ATOM     10  C8  UNL A   1      21.955  40.351  49.106  1.00  0.00    +0.000 C 
ATOM     11  C9  UNL A   1      20.791  40.123  49.837  1.00  0.00    +0.000 C 
ATOM    108  H10 UNL A   1      22.003  43.716  49.208  1.00  0.00    +0.000 H 
ATOM     13  C11 UNL A   1      20.579  42.504  50.205  1.00  0.00    +0.000 C 
ATOM     14  C12 UNL A   1      21.696  42.749  49.397  1.00  0.00    +0.000 C 
ATOM    105  H7  UNL A   1      20.434  39.162  49.961  1.00  0.00    +0.000 H 
ATOM    107  H9  UNL A   1      20.097  43.293  50.661  1.00  0.00    +0.000 H 
ATOM     12  C10 UNL A   1      20.112  41.200  50.400  1.00  0.00    +0.000 C 
ATOM    106  H8  UNL A   1      19.263  41.036  50.963  1.00  0.00    +0.000 H 
ENDBRANCH    8    9
ENDBRANCH   17   16
ENDBRANCH   20   19
ENDBRANCH   22   20
ENDBRANCH   23   22
ENDBRANCH   24   23
ENDBRANCH   25   24
ENDBRANCH   26   25
ENDBRANCH   27   26
ENDBRANCH   28   27
ENDBRANCH   29   28
ENDBRANCH   30   29
ENDBRANCH   32   30
ENDBRANCH   36   35
BRANCH   40   41
ATOM     41  C33 UNL A   1      16.826  36.992  48.718  1.00  0.00    +0.000 C 
ATOM     42  C34 UNL A   1      16.755  38.010  49.697  1.00  0.00    +0.000 C 
ATOM     43  F1  UNL A   1      17.855  38.644  50.128  1.00  0.00    +0.000 F 
ATOM     44  C35 UNL A   1      15.553  38.406  50.295  1.00  0.00    +0.000 C 
ATOM     45  F2  UNL A   1      15.566  39.336  51.261  1.00  0.00    +0.000 F 
ATOM     46  C36 UNL A   1      14.357  37.835  49.917  1.00  0.00    +0.000 C 
ATOM     47  F3  UNL A   1      13.207  38.200  50.496  1.00  0.00    +0.000 F 
ATOM     48  C37 UNL A   1      14.366  36.870  48.937  1.00  0.00    +0.000 C 
ATOM     49  F4  UNL A   1      13.217  36.301  48.545  1.00  0.00    +0.000 F 
ATOM     50  C38 UNL A   1      15.571  36.451  48.364  1.00  0.00    +0.000 C 
ATOM     51  F5  UNL A   1      15.430  35.465  47.479  1.00  0.00    +0.000 F 
ENDBRANCH   40   41
BRANCH   57   58
ATOM     65  C48 UNL A   1      17.600  31.584  42.720  1.00  0.00    +0.000 C 
ATOM     66  F9  UNL A   1      16.767  31.687  41.674  1.00  0.00    +0.000 F 
ATOM     67  C49 UNL A   1      18.274  32.713  43.180  1.00  0.00    +0.000 C 
ATOM     68  F10 UNL A   1      17.996  33.879  42.579  1.00  0.00    +0.000 F 
ATOM     58  C44 UNL A   1      19.194  32.645  44.244  1.00  0.00    +0.000 C 
ATOM     59  C45 UNL A   1      19.367  31.391  44.850  1.00  0.00    +0.000 C 
ATOM     60  F6  UNL A   1      20.235  31.236  45.861  1.00  0.00    +0.000 F 
ATOM     61  C46 UNL A   1      18.657  30.271  44.415  1.00  0.00    +0.000 C 
ATOM     62  F7  UNL A   1      18.824  29.095  45.035  1.00  0.00    +0.000 F 
ATOM     63  C47 UNL A   1      17.789  30.364  43.340  1.00  0.00    +0.000 C 
ATOM     64  F8  UNL A   1      17.132  29.279  42.905  1.00  0.00    +0.000 F 
ENDBRANCH   57   58
BRANCH   72   73
ATOM     73  C53 UNL A   1      25.816  34.931  45.866  1.00  0.00    +0.000 C 
ATOM     74  C54 UNL A   1      25.746  33.898  46.820  1.00  0.00    +0.000 C 
ATOM     75  F11 UNL A   1      24.586  33.641  47.447  1.00  0.00    +0.000 F 
ATOM     76  C55 UNL A   1      26.828  33.053  47.049  1.00  0.00    +0.000 C 
ATOM     77  F12 UNL A   1      26.698  32.012  47.884  1.00  0.00    +0.000 F 
ATOM     78  C56 UNL A   1      28.012  33.247  46.358  1.00  0.00    +0.000 C 
ATOM     79  F13 UNL A   1      29.025  32.384  46.507  1.00  0.00    +0.000 F 
ATOM     80  C57 UNL A   1      28.131  34.316  45.481  1.00  0.00    +0.000 C 
ATOM     81  F14 UNL A   1      29.269  34.489  44.794  1.00  0.00    +0.000 F 
ATOM     82  C58 UNL A   1      27.045  35.157  45.240  1.00  0.00    +0.000 C 
ATOM     83  F15 UNL A   1      27.165  36.115  44.308  1.00  0.00    +0.000 F 
ENDBRANCH   72   73
TORSDOF 19
ENDMDL
MODEL 8
REMARK VINA RESULT:      -8.9     22.867     28.939
ROOT
ATOM    130  H32 UNL A   1      42.206  25.513  25.317  1.00  0.00    +0.000 H 
ATOM    131  H33 UNL A   1      43.465  27.618  24.344  1.00  0.00    +0.000 H 
ATOM    132  H34 UNL A   1      46.064  25.550  26.787  1.00  0.00    +0.000 H 
ATOM    133  H35 UNL A   1      42.347  29.640  26.892  1.00  0.00    +0.000 H 
ATOM    134  H36 UNL A   1      42.118  27.362  28.023  1.00  0.00    +0.000 H 
ATOM    135  H37 UNL A   1      42.835  30.228  30.937  1.00  0.00    +0.000 H 
ATOM    136  H38 UNL A   1      47.053  31.898  27.483  1.00  0.00    +0.000 H 
ATOM    137  H39 UNL A   1      48.042  30.164  25.855  1.00  0.00    +0.000 H 
ATOM    138  H40 UNL A   1      44.433  22.967  30.132  1.00  0.00    +0.000 H 
ATOM    139  H41 UNL A   1      43.856  24.735  31.909  1.00  0.00    +0.000 H 
ATOM     36  C29 UNL A   1      43.375  27.358  30.657  1.00  0.00    +0.000 C 
ATOM     37  C30 UNL A   1      43.712  26.046  30.074  1.00  0.00    +0.000 C 
ATOM     38  N6  UNL A   1      43.953  25.857  28.820  1.00  0.00    +0.000 N 
ATOM     39  C31 UNL A   1      44.069  24.505  28.613  1.00  0.00    +0.000 C 
ATOM     40  C32 UNL A   1      43.938  24.026  27.343  1.00  0.00    +0.000 C 
ATOM     52  C39 UNL A   1      44.054  25.110  26.359  1.00  0.00    +0.000 C 
ATOM     53  C40 UNL A   1      43.181  25.785  25.522  1.00  0.00    +0.000 C 
ATOM     54  C41 UNL A   1      43.863  26.922  24.994  1.00  0.00    +0.000 C 
ATOM     55  C42 UNL A   1      45.150  26.929  25.502  1.00  0.00    +0.000 C 
ATOM     56  N7  UNL A   1      45.247  25.814  26.307  1.00  0.00    +0.000 N 
ATOM     57  C43 UNL A   1      46.280  27.837  25.418  1.00  0.00    +0.000 C 
ATOM     69  C50 UNL A   1      46.183  29.011  26.102  1.00  0.00    +0.000 C 
ATOM     70  N8  UNL A   1      45.084  29.338  26.846  1.00  0.00    +0.000 N 
ATOM     71  C51 UNL A   1      45.324  30.440  27.500  1.00  0.00    +0.000 C 
ATOM     72  C52 UNL A   1      44.423  31.001  28.575  1.00  0.00    +0.000 C 
ATOM     84  C59 UNL A   1      43.280  30.292  28.800  1.00  0.00    +0.000 C 
ATOM     85  C60 UNL A   1      42.636  29.404  27.854  1.00  0.00    +0.000 C 
ATOM     86  C61 UNL A   1      42.483  28.221  28.463  1.00  0.00    +0.000 C 
ATOM     87  C62 UNL A   1      42.920  28.348  29.851  1.00  0.00    +0.000 C 
ATOM     88  N9  UNL A   1      42.974  29.747  30.089  1.00  0.00    +0.000 N 
ATOM     89  C63 UNL A   1      46.626  31.018  27.157  1.00  0.00    +0.000 C 
ATOM     90  C64 UNL A   1      47.116  30.101  26.307  1.00  0.00    +0.000 C 
ATOM     91  C65 UNL A   1      44.177  23.948  29.938  1.00  0.00    +0.000 C 
ATOM     92  C66 UNL A   1      43.909  24.852  30.885  1.00  0.00    +0.000 C 
ENDROOT
BRANCH   36   35
ATOM     33  C26 UNL A   1      44.609  28.562  33.959  1.00  0.00    +0.000 C 
ATOM     34  C27 UNL A   1      44.666  27.922  32.726  1.00  0.00    +0.000 C 
ATOM    129  H31 UNL A   1      45.574  27.708  32.286  1.00  0.00    +0.000 H 
ATOM     35  C28 UNL A   1      43.470  27.574  32.098  1.00  0.00    +0.000 C 
ATOM    140  H42 UNL A   1      41.407  27.183  32.387  1.00  0.00    +0.000 H 
ATOM    141  H43 UNL A   1      41.357  28.097  34.646  1.00  0.00    +0.000 H 
ATOM    128  H30 UNL A   1      45.471  28.858  34.440  1.00  0.00    +0.000 H 
ATOM     93  C67 UNL A   1      42.257  27.590  32.806  1.00  0.00    +0.000 C 
ATOM     94  C68 UNL A   1      42.210  28.151  34.068  1.00  0.00    +0.000 C 
ATOM     32  C25 UNL A   1      43.355  28.795  34.530  1.00  0.00    +0.000 C 
BRANCH   32   30
ATOM     30  C24 UNL A   1      43.188  30.060  35.284  1.00  0.00    +0.000 C 
ATOM     31  O2  UNL A   1      42.194  30.257  35.943  1.00  0.00    +0.000 O 
BRANCH   30   29
ATOM     29  N5  UNL A   1      44.266  30.947  35.255  1.00  0.00    +0.000 N 
ATOM    127  H29 UNL A   1      45.003  30.754  35.877  1.00  0.00    +0.000 H 
BRANCH   29   28
ATOM     28  C23 UNL A   1      44.432  32.137  34.405  1.00  0.00    +0.000 C 
ATOM    125  H27 UNL A   1      44.351  33.002  35.029  1.00  0.00    +0.000 H 
ATOM    126  H28 UNL A   1      45.389  32.034  33.937  1.00  0.00    +0.000 H 
BRANCH   28   27
ATOM     27  C22 UNL A   1      43.420  32.277  33.270  1.00  0.00    +0.000 C 
ATOM    124  H26 UNL A   1      42.910  31.337  33.253  1.00  0.00    +0.000 H 
ATOM    123  H25 UNL A   1      43.969  32.527  32.385  1.00  0.00    +0.000 H 
BRANCH   27   26
ATOM    121  H23 UNL A   1      41.376  32.777  33.412  1.00  0.00    +0.000 H 
ATOM     26  C21 UNL A   1      42.304  33.311  33.419  1.00  0.00    +0.000 C 
ATOM    122  H24 UNL A   1      42.543  33.827  34.324  1.00  0.00    +0.000 H 
BRANCH   26   25
ATOM     25  C20 UNL A   1      42.193  34.427  32.367  1.00  0.00    +0.000 C 
ATOM    119  H21 UNL A   1      42.365  35.342  32.895  1.00  0.00    +0.000 H 
ATOM    120  H22 UNL A   1      42.887  34.083  31.629  1.00  0.00    +0.000 H 
BRANCH   25   24
ATOM    117  H19 UNL A   1      40.566  35.638  31.776  1.00  0.00    +0.000 H 
ATOM    118  H20 UNL A   1      41.314  34.517  30.511  1.00  0.00    +0.000 H 
ATOM     24  C19 UNL A   1      40.935  34.671  31.499  1.00  0.00    +0.000 C 
BRANCH   24   23
ATOM    115  H17 UNL A   1      39.859  33.019  30.736  1.00  0.00    +0.000 H 
ATOM    116  H18 UNL A   1      39.717  33.320  32.510  1.00  0.00    +0.000 H 
ATOM     23  C18 UNL A   1      39.728  33.732  31.523  1.00  0.00    +0.000 C 
BRANCH   23   22
ATOM    114  H16 UNL A   1      38.170  35.062  31.970  1.00  0.00    +0.000 H 
ATOM     22  N4  UNL A   1      38.414  34.335  31.353  1.00  0.00    +0.000 N 
BRANCH   22   20
ATOM     20  C17 UNL A   1      37.483  33.974  30.405  1.00  0.00    +0.000 C 
ATOM     21  O1  UNL A   1      37.891  33.982  29.233  1.00  0.00    +0.000 O 
BRANCH   20   19
ATOM    110  H12 UNL A   1      35.022  31.112  32.915  1.00  0.00    +0.000 H 
ATOM    111  H13 UNL A   1      35.373  31.446  30.654  1.00  0.00    +0.000 H 
ATOM    112  H14 UNL A   1      36.937  31.603  31.227  1.00  0.00    +0.000 H 
ATOM     17  C15 UNL A   1      35.498  32.020  32.611  1.00  0.00    +0.000 C 
ATOM     18  N3  UNL A   1      36.000  32.005  31.232  1.00  0.00    +0.000 N 
ATOM     19  C16 UNL A   1      36.068  33.385  30.689  1.00  0.00    +0.000 C 
ATOM    142  H44 UNL A   1      34.531  34.892  30.858  1.00  0.00    +0.000 H 
ATOM    143  H45 UNL A   1      35.802  35.097  32.001  1.00  0.00    +0.000 H 
ATOM    113  H15 UNL A   1      35.656  33.266  29.708  1.00  0.00    +0.000 H 
ATOM     95  C69 UNL A   1      35.203  34.363  31.502  1.00  0.00    +0.000 C 
ATOM     96  S1  UNL A   1      34.280  33.343  32.677  1.00  0.00    +0.000 S 
BRANCH   17   16
ATOM      6  C6  UNL A   1      37.863  31.404  33.625  1.00  0.00    +0.000 C 
ATOM      7  N1  UNL A   1      38.661  31.869  34.615  1.00  0.00    +0.000 N 
ATOM      8  N2  UNL A   1      38.088  33.040  34.997  1.00  0.00    +0.000 N 
ATOM    109  H11 UNL A   1      36.161  33.925  34.721  1.00  0.00    +0.000 H 
ATOM     15  C13 UNL A   1      36.843  33.192  34.470  1.00  0.00    +0.000 C 
ATOM     16  C14 UNL A   1      36.655  32.191  33.541  1.00  0.00    +0.000 C 
BRANCH    6    5
ATOM     97  C70 UNL A   1      37.739  28.993  32.921  1.00  0.00    +0.000 C 
ATOM      2  C2  UNL A   1      39.020  28.139  31.021  1.00  0.00    +0.000 C 
ATOM      3  C3  UNL A   1      39.600  29.396  30.881  1.00  0.00    +0.000 C 
ATOM      4  C4  UNL A   1      39.231  30.439  31.737  1.00  0.00    +0.000 C 
ATOM     98  C71 UNL A   1      38.102  27.940  32.060  1.00  0.00    +0.000 C 
ATOM    102  H4  UNL A   1      40.305  29.559  30.145  1.00  0.00    +0.000 H 
ATOM      5  C5  UNL A   1      38.276  30.274  32.755  1.00  0.00    +0.000 C 
ATOM    103  H5  UNL A   1      39.676  31.362  31.616  1.00  0.00    +0.000 H 
ATOM    144  H46 UNL A   1      37.067  28.819  33.685  1.00  0.00    +0.000 H 
ATOM    145  H47 UNL A   1      37.686  27.006  32.197  1.00  0.00    +0.000 H 
BRANCH    2    1
ATOM      1  C1  UNL A   1      39.397  27.047  30.064  1.00  0.00    +0.000 C 
ATOM     99  H1  UNL A   1      39.014  27.277  29.091  1.00  0.00    +0.000 H 
ATOM    100  H2  UNL A   1      38.985  26.119  30.400  1.00  0.00    +0.000 H 
ATOM    101  H3  UNL A   1      40.463  26.967  30.016  1.00  0.00    +0.000 H 
ENDBRANCH    2    1
ENDBRANCH    6    5
BRANCH    8    9
ATOM    104  H6  UNL A   1      39.366  35.037  33.856  1.00  0.00    +0.000 H 
ATOM      9  C7  UNL A   1      38.796  34.072  35.657  1.00  0.00    +0.000 C 
ATOM     10  C8  UNL A   1      39.457  35.047  34.884  1.00  0.00    +0.000 C 
ATOM     11  C9  UNL A   1      40.233  36.024  35.505  1.00  0.00    +0.000 C 
ATOM    108  H10 UNL A   1      38.374  33.406  37.617  1.00  0.00    +0.000 H 
ATOM     13  C11 UNL A   1      39.559  35.162  37.661  1.00  0.00    +0.000 C 
ATOM     14  C12 UNL A   1      38.849  34.123  37.047  1.00  0.00    +0.000 C 
ATOM    105  H7  UNL A   1      40.777  36.694  34.938  1.00  0.00    +0.000 H 
ATOM    107  H9  UNL A   1      39.555  35.243  38.689  1.00  0.00    +0.000 H 
ATOM     12  C10 UNL A   1      40.271  36.090  36.894  1.00  0.00    +0.000 C 
ATOM    106  H8  UNL A   1      40.824  36.826  37.360  1.00  0.00    +0.000 H 
ENDBRANCH    8    9
ENDBRANCH   17   16
ENDBRANCH   20   19
ENDBRANCH   22   20
ENDBRANCH   23   22
ENDBRANCH   24   23
ENDBRANCH   25   24
ENDBRANCH   26   25
ENDBRANCH   27   26
ENDBRANCH   28   27
ENDBRANCH   29   28
ENDBRANCH   30   29
ENDBRANCH   32   30
ENDBRANCH   36   35
BRANCH   40   41
ATOM     41  C33 UNL A   1      43.553  22.605  26.962  1.00  0.00    +0.000 C 
ATOM     42  C34 UNL A   1      44.298  21.911  25.980  1.00  0.00    +0.000 C 
ATOM     43  F1  UNL A   1      45.421  22.426  25.459  1.00  0.00    +0.000 F 
ATOM     44  C35 UNL A   1      43.909  20.666  25.471  1.00  0.00    +0.000 C 
ATOM     45  F2  UNL A   1      44.629  20.092  24.496  1.00  0.00    +0.000 F 
ATOM     46  C36 UNL A   1      42.780  20.034  25.945  1.00  0.00    +0.000 C 
ATOM     47  F3  UNL A   1      42.396  18.850  25.451  1.00  0.00    +0.000 F 
ATOM     48  C37 UNL A   1      42.045  20.647  26.932  1.00  0.00    +0.000 C 
ATOM     49  F4  UNL A   1      40.945  20.052  27.417  1.00  0.00    +0.000 F 
ATOM     50  C38 UNL A   1      42.415  21.905  27.416  1.00  0.00    +0.000 C 
ATOM     51  F5  UNL A   1      41.572  22.402  28.321  1.00  0.00    +0.000 F 
ENDBRANCH   40   41
BRANCH   57   58
ATOM     65  C48 UNL A   1      48.812  27.654  22.573  1.00  0.00    +0.000 C 
ATOM     66  F9  UNL A   1      48.917  28.092  21.310  1.00  0.00    +0.000 F 
ATOM     67  C49 UNL A   1      47.629  27.857  23.280  1.00  0.00    +0.000 C 
ATOM     68  F10 UNL A   1      46.614  28.434  22.619  1.00  0.00    +0.000 F 
ATOM     58  C44 UNL A   1      47.488  27.459  24.622  1.00  0.00    +0.000 C 
ATOM     59  C45 UNL A   1      48.586  26.804  25.204  1.00  0.00    +0.000 C 
ATOM     60  F6  UNL A   1      48.540  26.403  26.483  1.00  0.00    +0.000 F 
ATOM     61  C46 UNL A   1      49.754  26.562  24.480  1.00  0.00    +0.000 C 
ATOM     62  F7  UNL A   1      50.771  25.907  25.057  1.00  0.00    +0.000 F 
ATOM     63  C47 UNL A   1      49.874  27.003  23.172  1.00  0.00    +0.000 C 
ATOM     64  F8  UNL A   1      51.009  26.797  22.490  1.00  0.00    +0.000 F 
ENDBRANCH   57   58
BRANCH   72   73
ATOM     73  C53 UNL A   1      44.881  31.745  29.772  1.00  0.00    +0.000 C 
ATOM     74  C54 UNL A   1      45.878  31.164  30.579  1.00  0.00    +0.000 C 
ATOM     75  F11 UNL A   1      46.137  29.850  30.483  1.00  0.00    +0.000 F 
ATOM     76  C55 UNL A   1      46.690  31.944  31.396  1.00  0.00    +0.000 C 
ATOM     77  F12 UNL A   1      47.701  31.379  32.070  1.00  0.00    +0.000 F 
ATOM     78  C56 UNL A   1      46.496  33.314  31.454  1.00  0.00    +0.000 C 
ATOM     79  F13 UNL A   1      47.331  34.081  32.168  1.00  0.00    +0.000 F 
ATOM     80  C57 UNL A   1      45.458  33.894  30.738  1.00  0.00    +0.000 C 
ATOM     81  F14 UNL A   1      45.287  35.223  30.775  1.00  0.00    +0.000 F 
ATOM     82  C58 UNL A   1      44.651  33.117  29.908  1.00  0.00    +0.000 C 
ATOM     83  F15 UNL A   1      43.726  33.727  29.151  1.00  0.00    +0.000 F 
ENDBRANCH   72   73
TORSDOF 19
ENDMDL
MODEL 9
REMARK VINA RESULT:      -8.8     49.003     54.400
ROOT
ATOM    130  H32 UNL A   1      52.970  14.523   6.639  1.00  0.00    +0.000 H 
ATOM    131  H33 UNL A   1      51.002  15.479   8.115  1.00  0.00    +0.000 H 
ATOM    132  H34 UNL A   1      52.031  18.316   5.306  1.00  0.00    +0.000 H 
ATOM    133  H35 UNL A   1      53.182  16.717  10.470  1.00  0.00    +0.000 H 
ATOM    134  H36 UNL A   1      54.754  16.583   8.463  1.00  0.00    +0.000 H 
ATOM    135  H37 UNL A   1      56.023  19.658  10.944  1.00  0.00    +0.000 H 
ATOM    136  H38 UNL A   1      50.547  21.245  10.872  1.00  0.00    +0.000 H 
ATOM    137  H39 UNL A   1      49.110  20.537   8.855  1.00  0.00    +0.000 H 
ATOM    138  H40 UNL A   1      56.220  18.358   3.582  1.00  0.00    +0.000 H 
ATOM    139  H41 UNL A   1      57.545  19.475   5.484  1.00  0.00    +0.000 H 
ATOM     36  C29 UNL A   1      56.182  19.098   8.069  1.00  0.00    +0.000 C 
ATOM     37  C30 UNL A   1      55.840  18.639   6.710  1.00  0.00    +0.000 C 
ATOM     38  N6  UNL A   1      54.746  18.021   6.413  1.00  0.00    +0.000 N 
ATOM     39  C31 UNL A   1      54.836  17.608   5.107  1.00  0.00    +0.000 C 
ATOM     40  C32 UNL A   1      54.001  16.620   4.677  1.00  0.00    +0.000 C 
ATOM     52  C39 UNL A   1      52.892  16.423   5.618  1.00  0.00    +0.000 C 
ATOM     53  C40 UNL A   1      52.538  15.455   6.543  1.00  0.00    +0.000 C 
ATOM     54  C41 UNL A   1      51.471  15.972   7.339  1.00  0.00    +0.000 C 
ATOM     55  C42 UNL A   1      51.173  17.245   6.890  1.00  0.00    +0.000 C 
ATOM     56  N7  UNL A   1      52.031  17.487   5.837  1.00  0.00    +0.000 N 
ATOM     57  C43 UNL A   1      50.273  18.300   7.320  1.00  0.00    +0.000 C 
ATOM     69  C50 UNL A   1      50.597  18.961   8.466  1.00  0.00    +0.000 C 
ATOM     70  N8  UNL A   1      51.719  18.668   9.190  1.00  0.00    +0.000 N 
ATOM     71  C51 UNL A   1      51.852  19.545  10.145  1.00  0.00    +0.000 C 
ATOM     72  C52 UNL A   1      53.075  19.663  11.023  1.00  0.00    +0.000 C 
ATOM     84  C59 UNL A   1      54.049  18.739  10.786  1.00  0.00    +0.000 C 
ATOM     85  C60 UNL A   1      53.852  17.442  10.170  1.00  0.00    +0.000 C 
ATOM     86  C61 UNL A   1      54.705  17.360   9.141  1.00  0.00    +0.000 C 
ATOM     87  C62 UNL A   1      55.550  18.551   9.135  1.00  0.00    +0.000 C 
ATOM     88  N9  UNL A   1      55.380  19.123  10.424  1.00  0.00    +0.000 N 
ATOM     89  C63 UNL A   1      50.727  20.483  10.200  1.00  0.00    +0.000 C 
ATOM     90  C64 UNL A   1      49.993  20.090   9.145  1.00  0.00    +0.000 C 
ATOM     91  C65 UNL A   1      55.972  18.324   4.583  1.00  0.00    +0.000 C 
ATOM     92  C66 UNL A   1      56.666  18.937   5.547  1.00  0.00    +0.000 C 
ENDROOT
BRANCH   36   35
ATOM     33  C26 UNL A   1      57.874  22.325   8.837  1.00  0.00    +0.000 C 
ATOM     34  C27 UNL A   1      57.001  21.460   8.189  1.00  0.00    +0.000 C 
ATOM    129  H31 UNL A   1      56.197  21.826   7.656  1.00  0.00    +0.000 H 
ATOM     35  C28 UNL A   1      57.236  20.087   8.272  1.00  0.00    +0.000 C 
ATOM    140  H42 UNL A   1      58.694  18.596   8.644  1.00  0.00    +0.000 H 
ATOM    141  H43 UNL A   1      60.324  20.153   9.572  1.00  0.00    +0.000 H 
ATOM    128  H30 UNL A   1      57.717  23.345   8.821  1.00  0.00    +0.000 H 
ATOM     93  C67 UNL A   1      58.469  19.598   8.734  1.00  0.00    +0.000 C 
ATOM     94  C68 UNL A   1      59.378  20.467   9.306  1.00  0.00    +0.000 C 
ATOM     32  C25 UNL A   1      58.970  21.782   9.513  1.00  0.00    +0.000 C 
BRANCH   32   30
ATOM     30  C24 UNL A   1      59.376  22.448  10.773  1.00  0.00    +0.000 C 
ATOM     31  O2  UNL A   1      59.443  23.653  10.838  1.00  0.00    +0.000 O 
BRANCH   30   29
ATOM     29  N5  UNL A   1      59.585  21.618  11.876  1.00  0.00    +0.000 N 
ATOM    127  H29 UNL A   1      59.407  20.660  11.737  1.00  0.00    +0.000 H 
BRANCH   29   28
ATOM     28  C23 UNL A   1      60.040  22.001  13.223  1.00  0.00    +0.000 C 
ATOM    125  H27 UNL A   1      59.642  22.970  13.442  1.00  0.00    +0.000 H 
ATOM    126  H28 UNL A   1      59.690  21.234  13.882  1.00  0.00    +0.000 H 
BRANCH   28   27
ATOM     27  C22 UNL A   1      61.555  22.060  13.409  1.00  0.00    +0.000 C 
ATOM    124  H26 UNL A   1      61.688  22.602  14.321  1.00  0.00    +0.000 H 
ATOM    123  H25 UNL A   1      61.965  22.516  12.531  1.00  0.00    +0.000 H 
BRANCH   27   26
ATOM    121  H23 UNL A   1      62.729  20.462  12.692  1.00  0.00    +0.000 H 
ATOM     26  C21 UNL A   1      62.308  20.749  13.633  1.00  0.00    +0.000 C 
ATOM    122  H24 UNL A   1      63.006  20.977  14.411  1.00  0.00    +0.000 H 
BRANCH   26   25
ATOM     25  C20 UNL A   1      61.527  19.538  14.169  1.00  0.00    +0.000 C 
ATOM    119  H21 UNL A   1      61.839  19.418  15.186  1.00  0.00    +0.000 H 
ATOM    120  H22 UNL A   1      60.522  19.822  13.937  1.00  0.00    +0.000 H 
BRANCH   25   24
ATOM    117  H19 UNL A   1      61.937  17.470  14.312  1.00  0.00    +0.000 H 
ATOM    118  H20 UNL A   1      60.596  18.008  13.161  1.00  0.00    +0.000 H 
ATOM     24  C19 UNL A   1      61.589  18.125  13.540  1.00  0.00    +0.000 C 
BRANCH   24   23
ATOM    115  H17 UNL A   1      61.850  18.058  11.443  1.00  0.00    +0.000 H 
ATOM    116  H18 UNL A   1      63.326  18.397  12.426  1.00  0.00    +0.000 H 
ATOM     23  C18 UNL A   1      62.436  17.815  12.305  1.00  0.00    +0.000 C 
BRANCH   23   22
ATOM    114  H16 UNL A   1      63.833  16.254  12.400  1.00  0.00    +0.000 H 
ATOM     22  N4  UNL A   1      62.901  16.445  12.146  1.00  0.00    +0.000 N 
BRANCH   22   20
ATOM     20  C17 UNL A   1      62.150  15.393  11.670  1.00  0.00    +0.000 C 
ATOM     21  O1  UNL A   1      62.221  15.204  10.446  1.00  0.00    +0.000 O 
BRANCH   20   19
ATOM    110  H12 UNL A   1      58.142  13.648  12.870  1.00  0.00    +0.000 H 
ATOM    111  H13 UNL A   1      59.956  14.547  13.988  1.00  0.00    +0.000 H 
ATOM    112  H14 UNL A   1      59.818  15.629  12.721  1.00  0.00    +0.000 H 
ATOM     17  C15 UNL A   1      59.052  13.781  12.323  1.00  0.00    +0.000 C 
ATOM     18  N3  UNL A   1      60.024  14.664  12.978  1.00  0.00    +0.000 N 
ATOM     19  C16 UNL A   1      61.403  14.335  12.538  1.00  0.00    +0.000 C 
ATOM    142  H44 UNL A   1      62.248  12.354  12.387  1.00  0.00    +0.000 H 
ATOM    143  H45 UNL A   1      61.731  12.981  10.870  1.00  0.00    +0.000 H 
ATOM    113  H15 UNL A   1      61.948  14.352  13.459  1.00  0.00    +0.000 H 
ATOM     95  C69 UNL A   1      61.484  12.933  11.910  1.00  0.00    +0.000 C 
ATOM     96  S1  UNL A   1      59.861  12.180  12.178  1.00  0.00    +0.000 S 
BRANCH   17   16
ATOM      6  C6  UNL A   1      57.954  15.643  10.796  1.00  0.00    +0.000 C 
ATOM      7  N1  UNL A   1      57.752  15.836   9.472  1.00  0.00    +0.000 N 
ATOM      8  N2  UNL A   1      58.482  14.863   8.867  1.00  0.00    +0.000 N 
ATOM    109  H11 UNL A   1      59.367  13.029   9.521  1.00  0.00    +0.000 H 
ATOM     15  C13 UNL A   1      58.917  13.928   9.755  1.00  0.00    +0.000 C 
ATOM     16  C14 UNL A   1      58.645  14.395  11.023  1.00  0.00    +0.000 C 
BRANCH    6    5
ATOM     97  C70 UNL A   1      56.422  16.453  12.617  1.00  0.00    +0.000 C 
ATOM      2  C2  UNL A   1      56.818  18.562  13.791  1.00  0.00    +0.000 C 
ATOM      3  C3  UNL A   1      57.904  18.794  12.951  1.00  0.00    +0.000 C 
ATOM      4  C4  UNL A   1      58.252  17.853  11.977  1.00  0.00    +0.000 C 
ATOM     98  C71 UNL A   1      56.068  17.395  13.603  1.00  0.00    +0.000 C 
ATOM    102  H4  UNL A   1      58.452  19.663  13.047  1.00  0.00    +0.000 H 
ATOM      5  C5  UNL A   1      57.543  16.652  11.805  1.00  0.00    +0.000 C 
ATOM    103  H5  UNL A   1      59.060  18.047  11.364  1.00  0.00    +0.000 H 
ATOM    144  H46 UNL A   1      55.847  15.606  12.493  1.00  0.00    +0.000 H 
ATOM    145  H47 UNL A   1      55.242  17.223  14.197  1.00  0.00    +0.000 H 
BRANCH    2    1
ATOM      1  C1  UNL A   1      56.490  19.565  14.858  1.00  0.00    +0.000 C 
ATOM     99  H1  UNL A   1      57.375  19.798  15.414  1.00  0.00    +0.000 H 
ATOM    100  H2  UNL A   1      55.751  19.157  15.515  1.00  0.00    +0.000 H 
ATOM    101  H3  UNL A   1      56.110  20.457  14.404  1.00  0.00    +0.000 H 
ENDBRANCH    2    1
ENDBRANCH    6    5
BRANCH    8    9
ATOM    104  H6  UNL A   1      58.654  17.049   7.410  1.00  0.00    +0.000 H 
ATOM      9  C7  UNL A   1      58.935  14.949   7.529  1.00  0.00    +0.000 C 
ATOM     10  C8  UNL A   1      58.926  16.202   6.885  1.00  0.00    +0.000 C 
ATOM     11  C9  UNL A   1      59.283  16.302   5.542  1.00  0.00    +0.000 C 
ATOM    108  H10 UNL A   1      59.372  12.894   7.317  1.00  0.00    +0.000 H 
ATOM     13  C11 UNL A   1      59.814  13.942   5.529  1.00  0.00    +0.000 C 
ATOM     14  C12 UNL A   1      59.373  13.815   6.852  1.00  0.00    +0.000 C 
ATOM    105  H7  UNL A   1      59.208  17.206   5.049  1.00  0.00    +0.000 H 
ATOM    107  H9  UNL A   1      60.197  13.120   5.038  1.00  0.00    +0.000 H 
ATOM     12  C10 UNL A   1      59.742  15.174   4.869  1.00  0.00    +0.000 C 
ATOM    106  H8  UNL A   1      60.031  15.245   3.881  1.00  0.00    +0.000 H 
ENDBRANCH    8    9
ENDBRANCH   17   16
ENDBRANCH   20   19
ENDBRANCH   22   20
ENDBRANCH   23   22
ENDBRANCH   24   23
ENDBRANCH   25   24
ENDBRANCH   26   25
ENDBRANCH   27   26
ENDBRANCH   28   27
ENDBRANCH   29   28
ENDBRANCH   30   29
ENDBRANCH   32   30
ENDBRANCH   36   35
BRANCH   40   41
ATOM     41  C33 UNL A   1      54.242  15.707   3.484  1.00  0.00    +0.000 C 
ATOM     42  C34 UNL A   1      53.180  15.407   2.599  1.00  0.00    +0.000 C 
ATOM     43  F1  UNL A   1      51.987  16.007   2.708  1.00  0.00    +0.000 F 
ATOM     44  C35 UNL A   1      53.290  14.456   1.577  1.00  0.00    +0.000 C 
ATOM     45  F2  UNL A   1      52.224  14.176   0.813  1.00  0.00    +0.000 F 
ATOM     46  C36 UNL A   1      54.476  13.788   1.362  1.00  0.00    +0.000 C 
ATOM     47  F3  UNL A   1      54.581  12.868   0.394  1.00  0.00    +0.000 F 
ATOM     48  C37 UNL A   1      55.552  14.076   2.167  1.00  0.00    +0.000 C 
ATOM     49  F4  UNL A   1      56.721  13.446   1.976  1.00  0.00    +0.000 F 
ATOM     50  C38 UNL A   1      55.433  15.001   3.209  1.00  0.00    +0.000 C 
ATOM     51  F5  UNL A   1      56.536  15.126   3.945  1.00  0.00    +0.000 F 
ENDBRANCH   40   41
BRANCH   57   58
ATOM     65  C48 UNL A   1      46.793  18.075   5.777  1.00  0.00    +0.000 C 
ATOM     66  F9  UNL A   1      45.784  17.193   5.732  1.00  0.00    +0.000 F 
ATOM     67  C49 UNL A   1      47.992  17.724   6.393  1.00  0.00    +0.000 C 
ATOM     68  F10 UNL A   1      48.095  16.471   6.861  1.00  0.00    +0.000 F 
ATOM     58  C44 UNL A   1      49.062  18.631   6.507  1.00  0.00    +0.000 C 
ATOM     59  C45 UNL A   1      48.880  19.897   5.927  1.00  0.00    +0.000 C 
ATOM     60  F6  UNL A   1      49.845  20.826   6.002  1.00  0.00    +0.000 F 
ATOM     61  C46 UNL A   1      47.695  20.231   5.272  1.00  0.00    +0.000 C 
ATOM     62  F7  UNL A   1      47.565  21.438   4.703  1.00  0.00    +0.000 F 
ATOM     63  C47 UNL A   1      46.646  19.328   5.212  1.00  0.00    +0.000 C 
ATOM     64  F8  UNL A   1      45.497  19.664   4.609  1.00  0.00    +0.000 F 
ENDBRANCH   57   58
BRANCH   72   73
ATOM     73  C53 UNL A   1      53.610  20.928  11.580  1.00  0.00    +0.000 C 
ATOM     74  C54 UNL A   1      53.814  22.011  10.702  1.00  0.00    +0.000 C 
ATOM     75  F11 UNL A   1      53.874  21.797   9.378  1.00  0.00    +0.000 F 
ATOM     76  C55 UNL A   1      53.838  23.321  11.168  1.00  0.00    +0.000 C 
ATOM     77  F12 UNL A   1      53.925  24.338  10.298  1.00  0.00    +0.000 F 
ATOM     78  C56 UNL A   1      53.699  23.575  12.522  1.00  0.00    +0.000 C 
ATOM     79  F13 UNL A   1      53.631  24.837  12.965  1.00  0.00    +0.000 F 
ATOM     80  C57 UNL A   1      53.591  22.517  13.414  1.00  0.00    +0.000 C 
ATOM     81  F14 UNL A   1      53.432  22.763  14.722  1.00  0.00    +0.000 F 
ATOM     82  C58 UNL A   1      53.553  21.202  12.949  1.00  0.00    +0.000 C 
ATOM     83  F15 UNL A   1      53.342  20.212  13.830  1.00  0.00    +0.000 F 
ENDBRANCH   72   73
TORSDOF 19
ENDMDL
MODEL 10
REMARK VINA RESULT:      -8.8     46.952     52.271
ROOT
ATOM    130  H32 UNL A   1      52.628  14.282   6.623  1.00  0.00    +0.000 H 
ATOM    131  H33 UNL A   1      50.726  15.375   8.089  1.00  0.00    +0.000 H 
ATOM    132  H34 UNL A   1      51.884  18.089   5.209  1.00  0.00    +0.000 H 
ATOM    133  H35 UNL A   1      52.987  16.547  10.401  1.00  0.00    +0.000 H 
ATOM    134  H36 UNL A   1      54.535  16.283   8.387  1.00  0.00    +0.000 H 
ATOM    135  H37 UNL A   1      55.986  19.340  10.789  1.00  0.00    +0.000 H 
ATOM    136  H38 UNL A   1      50.603  21.218  10.716  1.00  0.00    +0.000 H 
ATOM    137  H39 UNL A   1      49.114  20.543   8.725  1.00  0.00    +0.000 H 
ATOM    138  H40 UNL A   1      56.057  17.867   3.458  1.00  0.00    +0.000 H 
ATOM    139  H41 UNL A   1      57.454  18.952   5.326  1.00  0.00    +0.000 H 
ATOM     36  C29 UNL A   1      56.093  18.708   7.927  1.00  0.00    +0.000 C 
ATOM     37  C30 UNL A   1      55.716  18.237   6.581  1.00  0.00    +0.000 C 
ATOM     38  N6  UNL A   1      54.588  17.673   6.305  1.00  0.00    +0.000 N 
ATOM     39  C31 UNL A   1      54.646  17.226   5.009  1.00  0.00    +0.000 C 
ATOM     40  C32 UNL A   1      53.756  16.276   4.606  1.00  0.00    +0.000 C 
ATOM     52  C39 UNL A   1      52.645  16.160   5.558  1.00  0.00    +0.000 C 
ATOM     53  C40 UNL A   1      52.246  15.234   6.508  1.00  0.00    +0.000 C 
ATOM     54  C41 UNL A   1      51.214  15.825   7.299  1.00  0.00    +0.000 C 
ATOM     55  C42 UNL A   1      50.983  17.102   6.822  1.00  0.00    +0.000 C 
ATOM     56  N7  UNL A   1      51.844  17.273   5.758  1.00  0.00    +0.000 N 
ATOM     57  C43 UNL A   1      50.143  18.214   7.234  1.00  0.00    +0.000 C 
ATOM     69  C50 UNL A   1      50.511  18.882   8.362  1.00  0.00    +0.000 C 
ATOM     70  N8  UNL A   1      51.622  18.544   9.086  1.00  0.00    +0.000 N 
ATOM     71  C51 UNL A   1      51.809  19.435  10.020  1.00  0.00    +0.000 C 
ATOM     72  C52 UNL A   1      53.043  19.506  10.887  1.00  0.00    +0.000 C 
ATOM     84  C59 UNL A   1      53.964  18.525  10.665  1.00  0.00    +0.000 C 
ATOM     85  C60 UNL A   1      53.693  17.228  10.081  1.00  0.00    +0.000 C 
ATOM     86  C61 UNL A   1      54.532  17.077   9.047  1.00  0.00    +0.000 C 
ATOM     87  C62 UNL A   1      55.440  18.220   9.010  1.00  0.00    +0.000 C 
ATOM     88  N9  UNL A   1      55.311  18.829  10.286  1.00  0.00    +0.000 N 
ATOM     89  C63 UNL A   1      50.736  20.433  10.060  1.00  0.00    +0.000 C 
ATOM     90  C64 UNL A   1      49.974  20.057   9.020  1.00  0.00    +0.000 C 
ATOM     91  C65 UNL A   1      55.815  17.868   4.461  1.00  0.00    +0.000 C 
ATOM     92  C66 UNL A   1      56.548  18.465   5.406  1.00  0.00    +0.000 C 
ENDROOT
BRANCH   36   35
ATOM     33  C26 UNL A   1      57.962  21.855   8.614  1.00  0.00    +0.000 C 
ATOM     34  C27 UNL A   1      57.038  21.025   7.991  1.00  0.00    +0.000 C 
ATOM    129  H31 UNL A   1      56.249  21.422   7.457  1.00  0.00    +0.000 H 
ATOM     35  C28 UNL A   1      57.200  19.643   8.101  1.00  0.00    +0.000 C 
ATOM    140  H42 UNL A   1      58.579  18.083   8.493  1.00  0.00    +0.000 H 
ATOM    141  H43 UNL A   1      60.299  19.570   9.374  1.00  0.00    +0.000 H 
ATOM    128  H30 UNL A   1      57.859  22.881   8.577  1.00  0.00    +0.000 H 
ATOM     93  C67 UNL A   1      58.408  19.098   8.563  1.00  0.00    +0.000 C 
ATOM     94  C68 UNL A   1      59.368  19.929   9.110  1.00  0.00    +0.000 C 
ATOM     32  C25 UNL A   1      59.033  21.267   9.292  1.00  0.00    +0.000 C 
BRANCH   32   30
ATOM     30  C24 UNL A   1      59.486  21.937  10.535  1.00  0.00    +0.000 C 
ATOM     31  O2  UNL A   1      60.472  21.552  11.117  1.00  0.00    +0.000 O 
BRANCH   30   29
ATOM     29  N5  UNL A   1      58.767  23.068  10.928  1.00  0.00    +0.000 N 
ATOM    127  H29 UNL A   1      59.013  23.913  10.488  1.00  0.00    +0.000 H 
BRANCH   29   28
ATOM     28  C23 UNL A   1      57.685  23.149  11.924  1.00  0.00    +0.000 C 
ATOM    125  H27 UNL A   1      56.937  23.812  11.544  1.00  0.00    +0.000 H 
ATOM    126  H28 UNL A   1      57.339  22.146  12.066  1.00  0.00    +0.000 H 
BRANCH   28   27
ATOM     27  C22 UNL A   1      58.104  23.650  13.305  1.00  0.00    +0.000 C 
ATOM    124  H26 UNL A   1      58.967  24.253  13.117  1.00  0.00    +0.000 H 
ATOM    123  H25 UNL A   1      58.261  22.789  13.921  1.00  0.00    +0.000 H 
BRANCH   27   26
ATOM    121  H23 UNL A   1      56.895  25.376  13.391  1.00  0.00    +0.000 H 
ATOM     26  C21 UNL A   1      57.151  24.578  14.058  1.00  0.00    +0.000 C 
ATOM    122  H24 UNL A   1      56.347  23.940  14.358  1.00  0.00    +0.000 H 
BRANCH   26   25
ATOM     25  C20 UNL A   1      57.634  25.219  15.369  1.00  0.00    +0.000 C 
ATOM    119  H21 UNL A   1      58.658  25.482  15.203  1.00  0.00    +0.000 H 
ATOM    120  H22 UNL A   1      56.892  25.977  15.512  1.00  0.00    +0.000 H 
BRANCH   25   24
ATOM    117  H19 UNL A   1      57.439  25.273  17.472  1.00  0.00    +0.000 H 
ATOM    118  H20 UNL A   1      56.843  23.765  16.586  1.00  0.00    +0.000 H 
ATOM     24  C19 UNL A   1      57.598  24.505  16.742  1.00  0.00    +0.000 C 
BRANCH   24   23
ATOM    115  H17 UNL A   1      59.296  23.292  16.405  1.00  0.00    +0.000 H 
ATOM    116  H18 UNL A   1      59.325  24.321  17.888  1.00  0.00    +0.000 H 
ATOM     23  C18 UNL A   1      58.765  23.663  17.257  1.00  0.00    +0.000 C 
BRANCH   23   22
ATOM    114  H16 UNL A   1      57.486  22.297  18.204  1.00  0.00    +0.000 H 
ATOM     22  N4  UNL A   1      58.439  22.522  18.100  1.00  0.00    +0.000 N 
BRANCH   22   20
ATOM     20  C17 UNL A   1      59.349  21.730  18.765  1.00  0.00    +0.000 C 
ATOM     21  O1  UNL A   1      59.609  22.084  19.926  1.00  0.00    +0.000 O 
BRANCH   20   19
ATOM    110  H12 UNL A   1      58.357  17.535  17.363  1.00  0.00    +0.000 H 
ATOM    111  H13 UNL A   1      59.689  18.455  19.015  1.00  0.00    +0.000 H 
ATOM    112  H14 UNL A   1      58.323  19.409  19.164  1.00  0.00    +0.000 H 
ATOM     17  C15 UNL A   1      58.562  18.583  17.314  1.00  0.00    +0.000 C 
ATOM     18  N3  UNL A   1      59.100  19.150  18.557  1.00  0.00    +0.000 N 
ATOM     19  C16 UNL A   1      59.907  20.362  18.268  1.00  0.00    +0.000 C 
ATOM    142  H44 UNL A   1      61.389  20.557  16.711  1.00  0.00    +0.000 H 
ATOM    143  H45 UNL A   1      59.875  21.258  16.288  1.00  0.00    +0.000 H 
ATOM    113  H15 UNL A   1      60.769  20.216  18.886  1.00  0.00    +0.000 H 
ATOM     95  C69 UNL A   1      60.330  20.429  16.791  1.00  0.00    +0.000 C 
ATOM     96  S1  UNL A   1      59.829  18.850  16.064  1.00  0.00    +0.000 S 
BRANCH   17   16
ATOM      6  C6  UNL A   1      56.501  19.225  15.785  1.00  0.00    +0.000 C 
ATOM      7  N1  UNL A   1      55.362  19.946  15.919  1.00  0.00    +0.000 N 
ATOM      8  N2  UNL A   1      55.278  20.211  17.249  1.00  0.00    +0.000 N 
ATOM    109  H11 UNL A   1      56.660  20.148  18.880  1.00  0.00    +0.000 H 
ATOM     15  C13 UNL A   1      56.434  19.910  17.902  1.00  0.00    +0.000 C 
ATOM     16  C14 UNL A   1      57.249  19.231  17.021  1.00  0.00    +0.000 C 
BRANCH    6    5
ATOM     97  C70 UNL A   1      57.528  19.146  13.491  1.00  0.00    +0.000 C 
ATOM      2  C2  UNL A   1      57.524  17.102  12.149  1.00  0.00    +0.000 C 
ATOM      3  C3  UNL A   1      56.783  16.479  13.148  1.00  0.00    +0.000 C 
ATOM      4  C4  UNL A   1      56.444  17.178  14.311  1.00  0.00    +0.000 C 
ATOM     98  C71 UNL A   1      57.877  18.446  12.320  1.00  0.00    +0.000 C 
ATOM    102  H4  UNL A   1      56.481  15.499  13.031  1.00  0.00    +0.000 H 
ATOM      5  C5  UNL A   1      56.830  18.513  14.525  1.00  0.00    +0.000 C 
ATOM    103  H5  UNL A   1      55.892  16.697  15.038  1.00  0.00    +0.000 H 
ATOM    144  H46 UNL A   1      57.792  20.139  13.589  1.00  0.00    +0.000 H 
ATOM    145  H47 UNL A   1      58.400  18.932  11.575  1.00  0.00    +0.000 H 
BRANCH    2    1
ATOM      1  C1  UNL A   1      57.914  16.319  10.930  1.00  0.00    +0.000 C 
ATOM     99  H1  UNL A   1      58.781  15.729  11.146  1.00  0.00    +0.000 H 
ATOM    100  H2  UNL A   1      58.131  16.992  10.127  1.00  0.00    +0.000 H 
ATOM    101  H3  UNL A   1      57.108  15.675  10.647  1.00  0.00    +0.000 H 
ENDBRANCH    2    1
ENDBRANCH    6    5
BRANCH    8    9
ATOM    104  H6  UNL A   1      54.498  19.338  19.606  1.00  0.00    +0.000 H 
ATOM      9  C7  UNL A   1      54.063  20.526  17.903  1.00  0.00    +0.000 C 
ATOM     10  C8  UNL A   1      53.789  19.937  19.153  1.00  0.00    +0.000 C 
ATOM     11  C9  UNL A   1      52.564  20.160  19.778  1.00  0.00    +0.000 C 
ATOM    108  H10 UNL A   1      53.339  21.822  16.400  1.00  0.00    +0.000 H 
ATOM     13  C11 UNL A   1      51.956  21.683  18.000  1.00  0.00    +0.000 C 
ATOM     14  C12 UNL A   1      53.145  21.395  17.320  1.00  0.00    +0.000 C 
ATOM    105  H7  UNL A   1      52.333  19.672  20.659  1.00  0.00    +0.000 H 
ATOM    107  H9  UNL A   1      51.297  22.370  17.606  1.00  0.00    +0.000 H 
ATOM     12  C10 UNL A   1      51.654  21.046  19.209  1.00  0.00    +0.000 C 
ATOM    106  H8  UNL A   1      50.755  21.234  19.679  1.00  0.00    +0.000 H 
ENDBRANCH    8    9
ENDBRANCH   17   16
ENDBRANCH   20   19
ENDBRANCH   22   20
ENDBRANCH   23   22
ENDBRANCH   24   23
ENDBRANCH   25   24
ENDBRANCH   26   25
ENDBRANCH   27   26
ENDBRANCH   28   27
ENDBRANCH   29   28
ENDBRANCH   30   29
ENDBRANCH   32   30
ENDBRANCH   36   35
BRANCH   40   41
ATOM     41  C33 UNL A   1      53.938  15.325   3.433  1.00  0.00    +0.000 C 
ATOM     42  C34 UNL A   1      55.208  14.754   3.179  1.00  0.00    +0.000 C 
ATOM     43  F1  UNL A   1      56.236  14.929   4.021  1.00  0.00    +0.000 F 
ATOM     44  C35 UNL A   1      55.484  13.998   2.032  1.00  0.00    +0.000 C 
ATOM     45  F2  UNL A   1      56.726  13.538   1.824  1.00  0.00    +0.000 F 
ATOM     46  C36 UNL A   1      54.498  13.741   1.105  1.00  0.00    +0.000 C 
ATOM     47  F3  UNL A   1      54.761  13.030   0.001  1.00  0.00    +0.000 F 
ATOM     48  C37 UNL A   1      53.235  14.236   1.328  1.00  0.00    +0.000 C 
ATOM     49  F4  UNL A   1      52.254  13.996   0.446  1.00  0.00    +0.000 F 
ATOM     50  C38 UNL A   1      52.968  15.019   2.456  1.00  0.00    +0.000 C 
ATOM     51  F5  UNL A   1      51.720  15.484   2.503  1.00  0.00    +0.000 F 
ENDBRANCH   40   41
BRANCH   57   58
ATOM     65  C48 UNL A   1      46.664  18.113   5.677  1.00  0.00    +0.000 C 
ATOM     66  F9  UNL A   1      45.629  17.262   5.618  1.00  0.00    +0.000 F 
ATOM     67  C49 UNL A   1      47.850  17.718   6.292  1.00  0.00    +0.000 C 
ATOM     68  F10 UNL A   1      47.913  16.456   6.745  1.00  0.00    +0.000 F 
ATOM     58  C44 UNL A   1      48.946  18.591   6.421  1.00  0.00    +0.000 C 
ATOM     59  C45 UNL A   1      48.804  19.869   5.857  1.00  0.00    +0.000 C 
ATOM     60  F6  UNL A   1      49.797  20.767   5.947  1.00  0.00    +0.000 F 
ATOM     61  C46 UNL A   1      47.632  20.247   5.202  1.00  0.00    +0.000 C 
ATOM     62  F7  UNL A   1      47.541  21.464   4.648  1.00  0.00    +0.000 F 
ATOM     63  C47 UNL A   1      46.557  19.377   5.128  1.00  0.00    +0.000 C 
ATOM     64  F8  UNL A   1      45.421  19.754   4.525  1.00  0.00    +0.000 F 
ENDBRANCH   57   58
BRANCH   72   73
ATOM     73  C53 UNL A   1      53.649  20.753  11.412  1.00  0.00    +0.000 C 
ATOM     74  C54 UNL A   1      53.914  21.799  10.506  1.00  0.00    +0.000 C 
ATOM     75  F11 UNL A   1      53.962  21.548   9.188  1.00  0.00    +0.000 F 
ATOM     76  C55 UNL A   1      54.014  23.117  10.938  1.00  0.00    +0.000 C 
ATOM     77  F12 UNL A   1      54.158  24.105  10.042  1.00  0.00    +0.000 F 
ATOM     78  C56 UNL A   1      53.889  23.414  12.285  1.00  0.00    +0.000 C 
ATOM     79  F13 UNL A   1      53.894  24.689  12.695  1.00  0.00    +0.000 F 
ATOM     80  C57 UNL A   1      53.721  22.387  13.203  1.00  0.00    +0.000 C 
ATOM     81  F14 UNL A   1      53.577  22.676  14.504  1.00  0.00    +0.000 F 
ATOM     82  C58 UNL A   1      53.608  21.065  12.773  1.00  0.00    +0.000 C 
ATOM     83  F15 UNL A   1      53.341  20.112  13.679  1.00  0.00    +0.000 F 
ENDBRANCH   72   73
TORSDOF 19
ENDMDL
