MODEL 1
REMARK VINA RESULT:      -8.8      0.000      0.000
ROOT
ATOM    142  H34 UNL A   1      18.160  53.272  -0.301  1.00  0.00    +0.000 H 
ATOM    143  H35 UNL A   1      17.746  50.790  -0.980  1.00  0.00    +0.000 H 
ATOM    144  H36 UNL A   1      15.326  51.674   2.262  1.00  0.00    +0.000 H 
ATOM    145  H37 UNL A   1      11.167  49.786   6.708  1.00  0.00    +0.000 H 
ATOM    146  H38 UNL A   1      11.357  52.271   7.192  1.00  0.00    +0.000 H 
ATOM    147  H39 UNL A   1      13.829  51.415   3.962  1.00  0.00    +0.000 H 
ATOM    148  H40 UNL A   1      13.026  46.570   2.879  1.00  0.00    +0.000 H 
ATOM    149  H41 UNL A   1      14.747  46.833   1.001  1.00  0.00    +0.000 H 
ATOM    150  H42 UNL A   1      16.045  56.505   3.414  1.00  0.00    +0.000 H 
ATOM    151  H43 UNL A   1      14.474  56.215   5.416  1.00  0.00    +0.000 H 
ATOM     50  C38 UNL A   1      13.247  53.638   5.559  1.00  0.00    +0.000 C 
ATOM     51  C39 UNL A   1      14.271  54.122   4.567  1.00  0.00    +0.000 C 
ATOM     52  N3  UNL A   1      14.831  53.474   3.574  1.00  0.00    +0.000 N 
ATOM     53  C40 UNL A   1      15.687  54.380   2.961  1.00  0.00    +0.000 C 
ATOM     54  C41 UNL A   1      16.516  54.181   1.908  1.00  0.00    +0.000 C 
ATOM     66  C48 UNL A   1      16.668  52.926   1.219  1.00  0.00    +0.000 C 
ATOM     67  C49 UNL A   1      17.498  52.624   0.153  1.00  0.00    +0.000 C 
ATOM     68  C50 UNL A   1      17.287  51.288  -0.201  1.00  0.00    +0.000 C 
ATOM     69  C51 UNL A   1      16.355  50.747   0.669  1.00  0.00    +0.000 C 
ATOM     70  N4  UNL A   1      15.981  51.764   1.533  1.00  0.00    +0.000 N 
ATOM     71  C52 UNL A   1      15.837  49.403   0.707  1.00  0.00    +0.000 C 
ATOM     83  C59 UNL A   1      14.959  48.934   1.626  1.00  0.00    +0.000 C 
ATOM     84  N5  UNL A   1      14.366  49.605   2.686  1.00  0.00    +0.000 N 
ATOM     85  C60 UNL A   1      13.574  48.737   3.263  1.00  0.00    +0.000 C 
ATOM     86  C61 UNL A   1      12.683  48.917   4.459  1.00  0.00    +0.000 C 
ATOM     98  C68 UNL A   1      12.590  50.130   5.033  1.00  0.00    +0.000 C 
ATOM     99  C69 UNL A   1      11.753  50.455   6.185  1.00  0.00    +0.000 C 
ATOM    100  C70 UNL A   1      11.868  51.764   6.453  1.00  0.00    +0.000 C 
ATOM    101  C71 UNL A   1      12.835  52.358   5.529  1.00  0.00    +0.000 C 
ATOM    102  N6  UNL A   1      13.196  51.318   4.710  1.00  0.00    +0.000 N 
ATOM    103  C72 UNL A   1      13.572  47.410   2.631  1.00  0.00    +0.000 C 
ATOM    104  C73 UNL A   1      14.455  47.577   1.656  1.00  0.00    +0.000 C 
ATOM    105  C74 UNL A   1      15.557  55.633   3.673  1.00  0.00    +0.000 C 
ATOM    106  C75 UNL A   1      14.730  55.513   4.703  1.00  0.00    +0.000 C 
ENDROOT
BRANCH   50   49
ATOM    107  C76 UNL A   1      11.549  55.270   6.456  1.00  0.00    +0.000 C 
ATOM    108  C77 UNL A   1      11.177  56.237   7.394  1.00  0.00    +0.000 C 
ATOM    140  H32 UNL A   1      13.578  55.681   9.670  1.00  0.00    +0.000 H 
ATOM     46  C34 UNL A   1      11.973  56.441   8.523  1.00  0.00    +0.000 C 
ATOM     47  C35 UNL A   1      13.075  55.618   8.771  1.00  0.00    +0.000 C 
ATOM     48  C36 UNL A   1      13.486  54.715   7.799  1.00  0.00    +0.000 C 
ATOM    141  H33 UNL A   1      14.347  54.165   7.944  1.00  0.00    +0.000 H 
ATOM     49  C37 UNL A   1      12.740  54.544   6.621  1.00  0.00    +0.000 C 
ATOM    152  H44 UNL A   1      10.945  55.088   5.638  1.00  0.00    +0.000 H 
ATOM    153  H45 UNL A   1      10.322  56.797   7.252  1.00  0.00    +0.000 H 
BRANCH   46   44
ATOM     44  C33 UNL A   1      11.693  57.596   9.401  1.00  0.00    +0.000 C 
ATOM     45  O10 UNL A   1      12.169  58.697   9.144  1.00  0.00    +0.000 O 
BRANCH   44   43
ATOM     43  N2  UNL A   1      10.932  57.402  10.530  1.00  0.00    +0.000 N 
ATOM    139  H31 UNL A   1      10.679  58.217  11.021  1.00  0.00    +0.000 H 
BRANCH   43   42
ATOM    137  H29 UNL A   1      11.088  55.357  10.755  1.00  0.00    +0.000 H 
ATOM     42  C32 UNL A   1      10.454  56.149  11.095  1.00  0.00    +0.000 C 
ATOM    138  H30 UNL A   1      10.476  56.247  12.161  1.00  0.00    +0.000 H 
BRANCH   42   41
ATOM     41  C31 UNL A   1       9.021  55.830  10.696  1.00  0.00    +0.000 C 
ATOM    135  H27 UNL A   1       8.432  55.776  11.586  1.00  0.00    +0.000 H 
ATOM    136  H28 UNL A   1       8.712  56.611  10.032  1.00  0.00    +0.000 H 
BRANCH   41   40
ATOM    133  H25 UNL A   1       8.097  53.942  10.428  1.00  0.00    +0.000 H 
ATOM    134  H26 UNL A   1       8.582  54.793   8.929  1.00  0.00    +0.000 H 
ATOM     40  C30 UNL A   1       8.847  54.520   9.930  1.00  0.00    +0.000 C 
BRANCH   40   39
ATOM    131  H23 UNL A   1      10.780  54.146   9.138  1.00  0.00    +0.000 H 
ATOM    132  H24 UNL A   1      10.494  53.566  10.809  1.00  0.00    +0.000 H 
ATOM     39  C29 UNL A   1      10.109  53.659   9.814  1.00  0.00    +0.000 C 
BRANCH   39   38
ATOM    129  H21 UNL A   1      10.763  51.915   8.786  1.00  0.00    +0.000 H 
ATOM    130  H22 UNL A   1       9.684  51.627  10.174  1.00  0.00    +0.000 H 
ATOM     38  C28 UNL A   1       9.885  52.227   9.312  1.00  0.00    +0.000 C 
BRANCH   38   37
ATOM     37  C27 UNL A   1       8.686  52.072   8.378  1.00  0.00    +0.000 C 
ATOM    127  H19 UNL A   1       8.062  52.937   8.466  1.00  0.00    +0.000 H 
ATOM    128  H20 UNL A   1       9.048  51.967   7.377  1.00  0.00    +0.000 H 
BRANCH   37   36
ATOM     36  N1  UNL A   1       7.911  50.896   8.709  1.00  0.00    +0.000 N 
ATOM    126  H18 UNL A   1       7.138  50.973   9.313  1.00  0.00    +0.000 H 
BRANCH   36    2
ATOM      1  O1  UNL A   1       8.093  49.368   7.014  1.00  0.00    +0.000 O 
ATOM      2  C1  UNL A   1       8.246  49.684   8.188  1.00  0.00    +0.000 C 
BRANCH    2    3
ATOM      3  C2  UNL A   1       8.856  48.710   9.117  1.00  0.00    +0.000 C 
ATOM    109  H1  UNL A   1       8.225  48.351   9.851  1.00  0.00    +0.000 H 
BRANCH    3    4
ATOM      4  C3  UNL A   1      10.114  48.218   9.152  1.00  0.00    +0.000 C 
ATOM    110  H2  UNL A   1      10.480  47.711   8.331  1.00  0.00    +0.000 H 
BRANCH    4    5
ATOM      5  C4  UNL A   1      11.027  48.397  10.399  1.00  0.00    +0.000 C 
ATOM      6  C5  UNL A   1      10.291  49.373  11.278  1.00  0.00    +0.000 C 
ATOM      7  C6  UNL A   1       9.659  49.008  12.401  1.00  0.00    +0.000 C 
ATOM      9  C7  UNL A   1       9.741  47.602  12.918  1.00  0.00    +0.000 C 
ATOM     10  O3  UNL A   1       9.135  47.296  13.939  1.00  0.00    +0.000 O 
ATOM     11  C8  UNL A   1      10.623  46.645  12.208  1.00  0.00    +0.000 C 
ATOM     12  C9  UNL A   1      11.199  47.054  11.074  1.00  0.00    +0.000 C 
ATOM     13  C10 UNL A   1      12.232  46.311  10.309  1.00  0.00    +0.000 C 
ATOM     14  O4  UNL A   1      12.416  45.120  10.300  1.00  0.00    +0.000 O 
ATOM     15  C11 UNL A   1      13.042  47.364   9.636  1.00  0.00    +0.000 C 
ATOM     16  C12 UNL A   1      14.164  47.138   8.948  1.00  0.00    +0.000 C 
ATOM     17  C13 UNL A   1      15.079  48.264   8.718  1.00  0.00    +0.000 C 
ATOM     18  C14 UNL A   1      15.709  48.411   7.472  1.00  0.00    +0.000 C 
ATOM     19  C15 UNL A   1      16.669  49.407   7.305  1.00  0.00    +0.000 C 
ATOM     21  C16 UNL A   1      17.034  50.226   8.370  1.00  0.00    +0.000 C 
ATOM     23  C17 UNL A   1      16.427  50.090   9.607  1.00  0.00    +0.000 C 
ATOM     24  C18 UNL A   1      15.416  49.143   9.772  1.00  0.00    +0.000 C 
ATOM     25  O7  UNL A   1      14.903  49.055  11.039  1.00  0.00    +0.000 O 
ATOM     26  C19 UNL A   1      13.469  49.161  11.253  1.00  0.00    +0.000 C 
ATOM     35  C26 UNL A   1      12.532  48.726  10.069  1.00  0.00    +0.000 C 
ATOM    111  H3  UNL A   1      10.272  50.366  11.003  1.00  0.00    +0.000 H 
ATOM    113  H5  UNL A   1      10.786  45.696  12.577  1.00  0.00    +0.000 H 
ATOM    114  H6  UNL A   1      14.382  46.196   8.587  1.00  0.00    +0.000 H 
ATOM    115  H7  UNL A   1      15.464  47.787   6.688  1.00  0.00    +0.000 H 
ATOM    118  H10 UNL A   1      16.721  50.683  10.399  1.00  0.00    +0.000 H 
ATOM    119  H11 UNL A   1      13.201  48.411  11.968  1.00  0.00    +0.000 H 
ATOM    125  H17 UNL A   1      12.554  49.554   9.392  1.00  0.00    +0.000 H 
BRANCH    7    8
ATOM    112  H4  UNL A   1       8.023  50.073  12.919  1.00  0.00    +0.000 H 
ATOM      8  O2  UNL A   1       8.925  49.925  13.127  1.00  0.00    +0.000 O 
ENDBRANCH    7    8
BRANCH   19   20
ATOM    116  H8  UNL A   1      17.497  48.886   5.552  1.00  0.00    +0.000 H 
ATOM     20  O5  UNL A   1      17.304  49.613   6.112  1.00  0.00    +0.000 O 
ENDBRANCH   19   20
BRANCH   21   22
ATOM    117  H9  UNL A   1      18.069  51.883   8.819  1.00  0.00    +0.000 H 
ATOM     22  O6  UNL A   1      18.003  51.175   8.210  1.00  0.00    +0.000 O 
ENDBRANCH   21   22
BRANCH   26   27
ATOM     34  C25 UNL A   1      12.869  50.758  13.158  1.00  0.00    +0.000 C 
ATOM     28  C21 UNL A   1      13.259  51.668  10.961  1.00  0.00    +0.000 C 
ATOM    120  H12 UNL A   1      13.379  51.529   9.945  1.00  0.00    +0.000 H 
ATOM    121  H13 UNL A   1      13.299  53.779  10.847  1.00  0.00    +0.000 H 
ATOM     27  C20 UNL A   1      13.184  50.549  11.809  1.00  0.00    +0.000 C 
ATOM    124  H16 UNL A   1      12.760  49.952  13.793  1.00  0.00    +0.000 H 
ATOM     29  C22 UNL A   1      13.172  52.965  11.470  1.00  0.00    +0.000 C 
ATOM     30  C23 UNL A   1      12.915  53.153  12.822  1.00  0.00    +0.000 C 
ATOM     32  C24 UNL A   1      12.703  52.053  13.648  1.00  0.00    +0.000 C 
BRANCH   30   31
ATOM    122  H14 UNL A   1      12.299  54.597  14.069  1.00  0.00    +0.000 H 
ATOM     31  O8  UNL A   1      12.862  54.413  13.343  1.00  0.00    +0.000 O 
ENDBRANCH   30   31
BRANCH   32   33
ATOM     33  O9  UNL A   1      12.356  52.243  14.955  1.00  0.00    +0.000 O 
ATOM    123  H15 UNL A   1      11.569  51.861  15.290  1.00  0.00    +0.000 H 
ENDBRANCH   32   33
ENDBRANCH   26   27
ENDBRANCH    4    5
ENDBRANCH    3    4
ENDBRANCH    2    3
ENDBRANCH   36    2
ENDBRANCH   37   36
ENDBRANCH   38   37
ENDBRANCH   39   38
ENDBRANCH   40   39
ENDBRANCH   41   40
ENDBRANCH   42   41
ENDBRANCH   43   42
ENDBRANCH   44   43
ENDBRANCH   46   44
ENDBRANCH   50   49
BRANCH   54   55
ATOM     65  F5  UNL A   1      15.560  56.061   0.002  1.00  0.00    +0.000 F 
ATOM     55  C42 UNL A   1      17.329  55.346   1.426  1.00  0.00    +0.000 C 
ATOM     56  C43 UNL A   1      18.644  55.556   1.864  1.00  0.00    +0.000 C 
ATOM     57  F1  UNL A   1      19.181  54.755   2.797  1.00  0.00    +0.000 F 
ATOM     58  C44 UNL A   1      19.407  56.608   1.362  1.00  0.00    +0.000 C 
ATOM     59  F2  UNL A   1      20.651  56.808   1.818  1.00  0.00    +0.000 F 
ATOM     60  C45 UNL A   1      18.879  57.452   0.395  1.00  0.00    +0.000 C 
ATOM     61  F3  UNL A   1      19.621  58.454  -0.096  1.00  0.00    +0.000 F 
ATOM     62  C46 UNL A   1      17.584  57.258  -0.059  1.00  0.00    +0.000 C 
ATOM     63  F4  UNL A   1      17.077  58.065  -1.000  1.00  0.00    +0.000 F 
ATOM     64  C47 UNL A   1      16.810  56.221   0.459  1.00  0.00    +0.000 C 
ENDBRANCH   54   55
BRANCH   71   72
ATOM     72  C53 UNL A   1      16.309  48.445  -0.345  1.00  0.00    +0.000 C 
ATOM     73  C54 UNL A   1      15.511  48.131  -1.454  1.00  0.00    +0.000 C 
ATOM     74  F6  UNL A   1      14.272  48.636  -1.557  1.00  0.00    +0.000 F 
ATOM     75  C55 UNL A   1      15.973  47.272  -2.447  1.00  0.00    +0.000 C 
ATOM     76  F7  UNL A   1      15.181  46.957  -3.480  1.00  0.00    +0.000 F 
ATOM     77  C56 UNL A   1      17.250  46.735  -2.363  1.00  0.00    +0.000 C 
ATOM     78  F8  UNL A   1      17.697  45.916  -3.326  1.00  0.00    +0.000 F 
ATOM     79  C57 UNL A   1      18.060  47.042  -1.280  1.00  0.00    +0.000 C 
ATOM     80  F9  UNL A   1      19.297  46.533  -1.205  1.00  0.00    +0.000 F 
ATOM     81  C58 UNL A   1      17.591  47.881  -0.273  1.00  0.00    +0.000 C 
ATOM     82  F10 UNL A   1      18.395  48.157   0.764  1.00  0.00    +0.000 F 
ENDBRANCH   71   72
BRANCH   86   87
ATOM     97  F15 UNL A   1       9.865  48.655   4.158  1.00  0.00    +0.000 F 
ATOM     87  C62 UNL A   1      11.903  47.782   5.013  1.00  0.00    +0.000 C 
ATOM     88  C63 UNL A   1      12.534  46.765   5.743  1.00  0.00    +0.000 C 
ATOM     89  F11 UNL A   1      13.865  46.786   5.907  1.00  0.00    +0.000 F 
ATOM     90  C64 UNL A   1      11.802  45.712   6.285  1.00  0.00    +0.000 C 
ATOM     91  F12 UNL A   1      12.431  44.736   6.955  1.00  0.00    +0.000 F 
ATOM     92  C65 UNL A   1      10.425  45.667   6.128  1.00  0.00    +0.000 C 
ATOM     93  F13 UNL A   1       9.719  44.660   6.662  1.00  0.00    +0.000 F 
ATOM     94  C66 UNL A   1       9.779  46.665   5.413  1.00  0.00    +0.000 C 
ATOM     95  F14 UNL A   1       8.447  46.634   5.271  1.00  0.00    +0.000 F 
ATOM     96  C67 UNL A   1      10.513  47.704   4.849  1.00  0.00    +0.000 C 
ENDBRANCH   86   87
TORSDOF 23
ENDMDL
MODEL 2
REMARK VINA RESULT:      -8.5     42.860     46.802
ROOT
ATOM    142  H34 UNL A   1      18.332  36.386  48.746  1.00  0.00    +0.000 H 
ATOM    143  H35 UNL A   1      18.802  34.532  46.976  1.00  0.00    +0.000 H 
ATOM    144  H36 UNL A   1      22.424  36.163  48.147  1.00  0.00    +0.000 H 
ATOM    145  H37 UNL A   1      28.754  36.553  47.503  1.00  0.00    +0.000 H 
ATOM    146  H38 UNL A   1      28.324  38.156  49.425  1.00  0.00    +0.000 H 
ATOM    147  H39 UNL A   1      24.664  36.571  48.252  1.00  0.00    +0.000 H 
ATOM    148  H40 UNL A   1      25.732  33.134  44.740  1.00  0.00    +0.000 H 
ATOM    149  H41 UNL A   1      23.214  32.704  44.573  1.00  0.00    +0.000 H 
ATOM    150  H42 UNL A   1      21.465  39.604  51.671  1.00  0.00    +0.000 H 
ATOM    151  H43 UNL A   1      23.958  40.187  51.716  1.00  0.00    +0.000 H 
ATOM     50  C38 UNL A   1      25.571  38.501  50.065  1.00  0.00    +0.000 C 
ATOM     51  C39 UNL A   1      24.073  38.489  50.216  1.00  0.00    +0.000 C 
ATOM     52  N3  UNL A   1      23.187  37.727  49.622  1.00  0.00    +0.000 N 
ATOM     53  C40 UNL A   1      21.951  38.110  50.129  1.00  0.00    +0.000 C 
ATOM     54  C41 UNL A   1      20.723  37.642  49.802  1.00  0.00    +0.000 C 
ATOM     66  C48 UNL A   1      20.475  36.625  48.815  1.00  0.00    +0.000 C 
ATOM     67  C49 UNL A   1      19.262  36.100  48.404  1.00  0.00    +0.000 C 
ATOM     68  C50 UNL A   1      19.514  35.115  47.443  1.00  0.00    +0.000 C 
ATOM     69  C51 UNL A   1      20.880  35.054  47.227  1.00  0.00    +0.000 C 
ATOM     70  N4  UNL A   1      21.459  35.984  48.078  1.00  0.00    +0.000 N 
ATOM     71  C52 UNL A   1      21.608  34.208  46.316  1.00  0.00    +0.000 C 
ATOM     83  C59 UNL A   1      22.949  34.244  46.124  1.00  0.00    +0.000 C 
ATOM     84  N5  UNL A   1      23.895  35.050  46.740  1.00  0.00    +0.000 N 
ATOM     85  C60 UNL A   1      25.052  34.689  46.244  1.00  0.00    +0.000 C 
ATOM     86  C61 UNL A   1      26.422  35.224  46.550  1.00  0.00    +0.000 C 
ATOM     98  C68 UNL A   1      26.563  36.166  47.501  1.00  0.00    +0.000 C 
ATOM     99  C69 UNL A   1      27.831  36.761  47.915  1.00  0.00    +0.000 C 
ATOM    100  C70 UNL A   1      27.601  37.622  48.918  1.00  0.00    +0.000 C 
ATOM    101  C71 UNL A   1      26.162  37.684  49.174  1.00  0.00    +0.000 C 
ATOM    102  N6  UNL A   1      25.628  36.772  48.300  1.00  0.00    +0.000 N 
ATOM    103  C72 UNL A   1      24.971  33.605  45.255  1.00  0.00    +0.000 C 
ATOM    104  C73 UNL A   1      23.664  33.391  45.198  1.00  0.00    +0.000 C 
ATOM    105  C74 UNL A   1      22.198  39.155  51.099  1.00  0.00    +0.000 C 
ATOM    106  C75 UNL A   1      23.487  39.459  51.156  1.00  0.00    +0.000 C 
ENDROOT
BRANCH   50   49
ATOM    107  C76 UNL A   1      26.689  40.742  50.345  1.00  0.00    +0.000 C 
ATOM    108  C77 UNL A   1      27.602  41.564  51.011  1.00  0.00    +0.000 C 
ATOM    140  H32 UNL A   1      28.117  39.655  53.721  1.00  0.00    +0.000 H 
ATOM     46  C34 UNL A   1      28.186  41.121  52.200  1.00  0.00    +0.000 C 
ATOM     47  C35 UNL A   1      27.787  39.914  52.778  1.00  0.00    +0.000 C 
ATOM     48  C36 UNL A   1      26.943  39.064  52.074  1.00  0.00    +0.000 C 
ATOM    141  H33 UNL A   1      26.712  38.136  52.461  1.00  0.00    +0.000 H 
ATOM     49  C37 UNL A   1      26.399  39.460  50.840  1.00  0.00    +0.000 C 
ATOM    152  H44 UNL A   1      26.225  41.078  49.486  1.00  0.00    +0.000 H 
ATOM    153  H45 UNL A   1      27.844  42.490  50.627  1.00  0.00    +0.000 H 
BRANCH   46   44
ATOM     44  C33 UNL A   1      29.297  41.898  52.788  1.00  0.00    +0.000 C 
ATOM     45  O10 UNL A   1      29.153  43.089  53.039  1.00  0.00    +0.000 O 
BRANCH   44   43
ATOM     43  N2  UNL A   1      30.504  41.273  53.000  1.00  0.00    +0.000 N 
ATOM    139  H31 UNL A   1      30.620  40.855  53.883  1.00  0.00    +0.000 H 
BRANCH   43   42
ATOM    137  H29 UNL A   1      31.807  42.103  51.632  1.00  0.00    +0.000 H 
ATOM     42  C32 UNL A   1      31.633  41.151  52.089  1.00  0.00    +0.000 C 
ATOM    138  H30 UNL A   1      32.475  40.824  52.662  1.00  0.00    +0.000 H 
BRANCH   42   41
ATOM     41  C31 UNL A   1      31.398  40.122  50.993  1.00  0.00    +0.000 C 
ATOM    135  H27 UNL A   1      30.408  40.259  50.613  1.00  0.00    +0.000 H 
ATOM    136  H28 UNL A   1      32.159  40.285  50.258  1.00  0.00    +0.000 H 
BRANCH   41   40
ATOM    133  H25 UNL A   1      32.391  38.250  50.949  1.00  0.00    +0.000 H 
ATOM    134  H26 UNL A   1      31.628  38.693  52.508  1.00  0.00    +0.000 H 
ATOM     40  C30 UNL A   1      31.538  38.668  51.441  1.00  0.00    +0.000 C 
BRANCH   40   39
ATOM    131  H23 UNL A   1      29.694  37.776  51.997  1.00  0.00    +0.000 H 
ATOM    132  H24 UNL A   1      29.873  38.184  50.262  1.00  0.00    +0.000 H 
ATOM     39  C29 UNL A   1      30.332  37.774  51.137  1.00  0.00    +0.000 C 
BRANCH   39   38
ATOM    129  H21 UNL A   1      30.203  35.686  51.530  1.00  0.00    +0.000 H 
ATOM    130  H22 UNL A   1      30.293  36.139  49.808  1.00  0.00    +0.000 H 
ATOM     38  C28 UNL A   1      30.663  36.315  50.796  1.00  0.00    +0.000 C 
BRANCH   38   37
ATOM     37  C27 UNL A   1      32.159  36.004  50.768  1.00  0.00    +0.000 C 
ATOM    127  H19 UNL A   1      32.694  36.827  51.192  1.00  0.00    +0.000 H 
ATOM    128  H20 UNL A   1      32.329  35.111  51.333  1.00  0.00    +0.000 H 
BRANCH   37   36
ATOM     36  N1  UNL A   1      32.624  35.784  49.416  1.00  0.00    +0.000 N 
ATOM    126  H18 UNL A   1      32.567  34.886  49.019  1.00  0.00    +0.000 H 
BRANCH   36    2
ATOM      1  O1  UNL A   1      34.212  37.358  48.924  1.00  0.00    +0.000 O 
ATOM      2  C1  UNL A   1      33.139  36.814  48.691  1.00  0.00    +0.000 C 
BRANCH    2    3
ATOM      3  C2  UNL A   1      32.340  37.274  47.535  1.00  0.00    +0.000 C 
ATOM    109  H1  UNL A   1      32.659  36.926  46.617  1.00  0.00    +0.000 H 
BRANCH    3    4
ATOM      4  C3  UNL A   1      31.257  38.081  47.498  1.00  0.00    +0.000 C 
ATOM    110  H2  UNL A   1      30.380  37.767  47.942  1.00  0.00    +0.000 H 
BRANCH    4    5
ATOM      5  C4  UNL A   1      31.296  39.472  46.803  1.00  0.00    +0.000 C 
ATOM      6  C5  UNL A   1      32.421  40.208  47.481  1.00  0.00    +0.000 C 
ATOM      7  C6  UNL A   1      33.607  40.427  46.896  1.00  0.00    +0.000 C 
ATOM      9  C7  UNL A   1      33.850  40.042  45.466  1.00  0.00    +0.000 C 
ATOM     10  O3  UNL A   1      34.952  40.238  44.966  1.00  0.00    +0.000 O 
ATOM     11  C8  UNL A   1      32.714  39.502  44.683  1.00  0.00    +0.000 C 
ATOM     12  C9  UNL A   1      31.567  39.272  45.328  1.00  0.00    +0.000 C 
ATOM     13  C10 UNL A   1      30.278  38.890  44.697  1.00  0.00    +0.000 C 
ATOM     14  O4  UNL A   1      30.121  38.328  43.643  1.00  0.00    +0.000 O 
ATOM     15  C11 UNL A   1      29.231  39.438  45.604  1.00  0.00    +0.000 C 
ATOM     16  C12 UNL A   1      27.921  39.435  45.343  1.00  0.00    +0.000 C 
ATOM     17  C13 UNL A   1      27.061  40.369  46.082  1.00  0.00    +0.000 C 
ATOM     18  C14 UNL A   1      25.802  39.950  46.539  1.00  0.00    +0.000 C 
ATOM     19  C15 UNL A   1      24.945  40.878  47.129  1.00  0.00    +0.000 C 
ATOM     21  C16 UNL A   1      25.311  42.217  47.230  1.00  0.00    +0.000 C 
ATOM     23  C17 UNL A   1      26.546  42.648  46.778  1.00  0.00    +0.000 C 
ATOM     24  C18 UNL A   1      27.443  41.720  46.248  1.00  0.00    +0.000 C 
ATOM     25  O7  UNL A   1      28.623  42.246  45.793  1.00  0.00    +0.000 O 
ATOM     26  C19 UNL A   1      29.889  41.709  46.263  1.00  0.00    +0.000 C 
ATOM     35  C26 UNL A   1      29.906  40.206  46.724  1.00  0.00    +0.000 C 
ATOM    111  H3  UNL A   1      32.273  40.559  48.439  1.00  0.00    +0.000 H 
ATOM    113  H5  UNL A   1      32.805  39.310  43.673  1.00  0.00    +0.000 H 
ATOM    114  H6  UNL A   1      27.523  38.794  44.639  1.00  0.00    +0.000 H 
ATOM    115  H7  UNL A   1      25.514  38.964  46.440  1.00  0.00    +0.000 H 
ATOM    118  H10 UNL A   1      26.801  43.647  46.832  1.00  0.00    +0.000 H 
ATOM    119  H11 UNL A   1      30.535  41.633  45.413  1.00  0.00    +0.000 H 
ATOM    125  H17 UNL A   1      29.478  40.223  47.705  1.00  0.00    +0.000 H 
BRANCH    7    8
ATOM    112  H4  UNL A   1      35.515  40.727  47.481  1.00  0.00    +0.000 H 
ATOM      8  O2  UNL A   1      34.635  41.031  47.590  1.00  0.00    +0.000 O 
ENDBRANCH    7    8
BRANCH   19   20
ATOM    116  H8  UNL A   1      23.615  39.747  48.121  1.00  0.00    +0.000 H 
ATOM     20  O5  UNL A   1      23.714  40.527  47.610  1.00  0.00    +0.000 O 
ENDBRANCH   19   20
BRANCH   21   22
ATOM    117  H9  UNL A   1      23.548  43.126  47.522  1.00  0.00    +0.000 H 
ATOM     22  O6  UNL A   1      24.451  43.127  47.773  1.00  0.00    +0.000 O 
ENDBRANCH   21   22
BRANCH   26   27
ATOM     34  C25 UNL A   1      31.391  43.673  46.916  1.00  0.00    +0.000 C 
ATOM     28  C21 UNL A   1      30.036  42.633  48.616  1.00  0.00    +0.000 C 
ATOM    120  H12 UNL A   1      29.439  41.851  48.928  1.00  0.00    +0.000 H 
ATOM    121  H13 UNL A   1      30.032  43.605  50.494  1.00  0.00    +0.000 H 
ATOM     27  C20 UNL A   1      30.462  42.689  47.277  1.00  0.00    +0.000 C 
ATOM    124  H16 UNL A   1      31.758  43.707  45.952  1.00  0.00    +0.000 H 
ATOM     29  C22 UNL A   1      30.408  43.619  49.532  1.00  0.00    +0.000 C 
ATOM     30  C23 UNL A   1      31.288  44.620  49.139  1.00  0.00    +0.000 C 
ATOM     32  C24 UNL A   1      31.823  44.609  47.855  1.00  0.00    +0.000 C 
BRANCH   30   31
ATOM    122  H14 UNL A   1      32.480  46.012  49.953  1.00  0.00    +0.000 H 
ATOM     31  O8  UNL A   1      31.634  45.611  50.010  1.00  0.00    +0.000 O 
ENDBRANCH   30   31
BRANCH   32   33
ATOM     33  O9  UNL A   1      32.761  45.538  47.503  1.00  0.00    +0.000 O 
ATOM    123  H15 UNL A   1      33.213  46.021  48.166  1.00  0.00    +0.000 H 
ENDBRANCH   32   33
ENDBRANCH   26   27
ENDBRANCH    4    5
ENDBRANCH    3    4
ENDBRANCH    2    3
ENDBRANCH   36    2
ENDBRANCH   37   36
ENDBRANCH   38   37
ENDBRANCH   39   38
ENDBRANCH   40   39
ENDBRANCH   41   40
ENDBRANCH   42   41
ENDBRANCH   43   42
ENDBRANCH   44   43
ENDBRANCH   46   44
ENDBRANCH   50   49
BRANCH   54   55
ATOM     65  F5  UNL A   1      19.668  36.539  52.201  1.00  0.00    +0.000 F 
ATOM     55  C42 UNL A   1      19.540  38.221  50.521  1.00  0.00    +0.000 C 
ATOM     56  C43 UNL A   1      18.849  39.334  50.021  1.00  0.00    +0.000 C 
ATOM     57  F1  UNL A   1      19.287  39.961  48.919  1.00  0.00    +0.000 F 
ATOM     58  C44 UNL A   1      17.716  39.824  50.667  1.00  0.00    +0.000 C 
ATOM     59  F2  UNL A   1      17.089  40.907  50.189  1.00  0.00    +0.000 F 
ATOM     60  C45 UNL A   1      17.238  39.195  51.808  1.00  0.00    +0.000 C 
ATOM     61  F3  UNL A   1      16.139  39.660  52.419  1.00  0.00    +0.000 F 
ATOM     62  C46 UNL A   1      17.900  38.087  52.315  1.00  0.00    +0.000 C 
ATOM     63  F4  UNL A   1      17.434  37.473  53.411  1.00  0.00    +0.000 F 
ATOM     64  C47 UNL A   1      19.047  37.610  51.685  1.00  0.00    +0.000 C 
ENDBRANCH   54   55
BRANCH   71   72
ATOM     72  C53 UNL A   1      20.824  33.215  45.512  1.00  0.00    +0.000 C 
ATOM     73  C54 UNL A   1      20.793  31.858  45.861  1.00  0.00    +0.000 C 
ATOM     74  F6  UNL A   1      21.527  31.410  46.892  1.00  0.00    +0.000 F 
ATOM     75  C55 UNL A   1      20.031  30.949  45.133  1.00  0.00    +0.000 C 
ATOM     76  F7  UNL A   1      20.043  29.651  45.462  1.00  0.00    +0.000 F 
ATOM     77  C56 UNL A   1      19.264  31.386  44.062  1.00  0.00    +0.000 C 
ATOM     78  F8  UNL A   1      18.522  30.512  43.368  1.00  0.00    +0.000 F 
ATOM     79  C57 UNL A   1      19.271  32.727  43.707  1.00  0.00    +0.000 C 
ATOM     80  F9  UNL A   1      18.523  33.151  42.680  1.00  0.00    +0.000 F 
ATOM     81  C58 UNL A   1      20.053  33.633  44.418  1.00  0.00    +0.000 C 
ATOM     82  F10 UNL A   1      20.044  34.922  44.049  1.00  0.00    +0.000 F 
ENDBRANCH   71   72
BRANCH   86   87
ATOM     97  F15 UNL A   1      28.046  33.081  47.486  1.00  0.00    +0.000 F 
ATOM     87  C62 UNL A   1      27.619  34.728  45.826  1.00  0.00    +0.000 C 
ATOM     88  C63 UNL A   1      28.025  35.317  44.621  1.00  0.00    +0.000 C 
ATOM     89  F11 UNL A   1      27.302  36.312  44.085  1.00  0.00    +0.000 F 
ATOM     90  C64 UNL A   1      29.162  34.871  43.952  1.00  0.00    +0.000 C 
ATOM     91  F12 UNL A   1      29.514  35.432  42.787  1.00  0.00    +0.000 F 
ATOM     92  C65 UNL A   1      29.926  33.844  44.485  1.00  0.00    +0.000 C 
ATOM     93  F13 UNL A   1      31.028  33.424  43.848  1.00  0.00    +0.000 F 
ATOM     94  C66 UNL A   1      29.545  33.249  45.679  1.00  0.00    +0.000 C 
ATOM     95  F14 UNL A   1      30.288  32.266  46.205  1.00  0.00    +0.000 F 
ATOM     96  C67 UNL A   1      28.395  33.677  46.335  1.00  0.00    +0.000 C 
ENDBRANCH   86   87
TORSDOF 23
ENDMDL
MODEL 3
REMARK VINA RESULT:      -8.4      2.963      7.870
ROOT
ATOM    142  H34 UNL A   1      18.783  50.676  -2.162  1.00  0.00    +0.000 H 
ATOM    143  H35 UNL A   1      19.357  53.197  -1.827  1.00  0.00    +0.000 H 
ATOM    144  H36 UNL A   1      16.192  52.239   0.666  1.00  0.00    +0.000 H 
ATOM    145  H37 UNL A   1      11.726  54.045   4.840  1.00  0.00    +0.000 H 
ATOM    146  H38 UNL A   1      11.351  51.537   4.726  1.00  0.00    +0.000 H 
ATOM    147  H39 UNL A   1      14.504  52.465   2.182  1.00  0.00    +0.000 H 
ATOM    148  H40 UNL A   1      15.382  57.373   2.835  1.00  0.00    +0.000 H 
ATOM    149  H41 UNL A   1      17.245  57.145   1.093  1.00  0.00    +0.000 H 
ATOM    150  H42 UNL A   1      15.246  47.343   0.098  1.00  0.00    +0.000 H 
ATOM    151  H43 UNL A   1      13.256  47.589   1.690  1.00  0.00    +0.000 H 
ATOM     50  C38 UNL A   1      13.016  50.190   2.849  1.00  0.00    +0.000 C 
ATOM     51  C39 UNL A   1      14.014  49.723   1.823  1.00  0.00    +0.000 C 
ATOM     52  N3  UNL A   1      14.969  50.397   1.230  1.00  0.00    +0.000 N 
ATOM     53  C40 UNL A   1      15.610  49.495   0.390  1.00  0.00    +0.000 C 
ATOM     54  C41 UNL A   1      16.640  49.718  -0.461  1.00  0.00    +0.000 C 
ATOM     66  C48 UNL A   1      17.270  50.996  -0.658  1.00  0.00    +0.000 C 
ATOM     67  C49 UNL A   1      18.310  51.322  -1.512  1.00  0.00    +0.000 C 
ATOM     68  C50 UNL A   1      18.608  52.678  -1.343  1.00  0.00    +0.000 C 
ATOM     69  C51 UNL A   1      17.728  53.206  -0.412  1.00  0.00    +0.000 C 
ATOM     70  N4  UNL A   1      16.915  52.163   0.003  1.00  0.00    +0.000 N 
ATOM     71  C52 UNL A   1      17.638  54.561   0.069  1.00  0.00    +0.000 C 
ATOM     83  C59 UNL A   1      16.711  55.014   0.948  1.00  0.00    +0.000 C 
ATOM     84  N5  UNL A   1      15.691  54.313   1.575  1.00  0.00    +0.000 N 
ATOM     85  C60 UNL A   1      15.087  55.177   2.352  1.00  0.00    +0.000 C 
ATOM     86  C61 UNL A   1      13.913  54.970   3.266  1.00  0.00    +0.000 C 
ATOM     98  C68 UNL A   1      13.395  53.735   3.402  1.00  0.00    +0.000 C 
ATOM     99  C69 UNL A   1      12.270  53.383   4.265  1.00  0.00    +0.000 C 
ATOM    100  C70 UNL A   1      12.060  52.061   4.190  1.00  0.00    +0.000 C 
ATOM    101  C71 UNL A   1      12.995  51.482   3.225  1.00  0.00    +0.000 C 
ATOM    102  N6  UNL A   1      13.762  52.546   2.823  1.00  0.00    +0.000 N 
ATOM    103  C72 UNL A   1      15.660  56.529   2.308  1.00  0.00    +0.000 C 
ATOM    104  C73 UNL A   1      16.628  56.381   1.415  1.00  0.00    +0.000 C 
ATOM    105  C74 UNL A   1      14.955  48.216   0.565  1.00  0.00    +0.000 C 
ATOM    106  C75 UNL A   1      13.933  48.314   1.404  1.00  0.00    +0.000 C 
ENDROOT
BRANCH   50   49
ATOM    107  C76 UNL A   1      10.800  48.996   2.717  1.00  0.00    +0.000 C 
ATOM    108  C77 UNL A   1       9.794  48.243   3.328  1.00  0.00    +0.000 C 
ATOM    140  H32 UNL A   1      11.461  47.313   6.086  1.00  0.00    +0.000 H 
ATOM     46  C34 UNL A   1      10.012  47.704   4.598  1.00  0.00    +0.000 C 
ATOM     47  C35 UNL A   1      11.260  47.826   5.214  1.00  0.00    +0.000 C 
ATOM     48  C36 UNL A   1      12.228  48.642   4.642  1.00  0.00    +0.000 C 
ATOM    141  H33 UNL A   1      13.120  48.800   5.136  1.00  0.00    +0.000 H 
ATOM     49  C37 UNL A   1      12.002  49.253   3.397  1.00  0.00    +0.000 C 
ATOM    152  H44 UNL A   1      10.660  49.365   1.763  1.00  0.00    +0.000 H 
ATOM    153  H45 UNL A   1       8.897  48.086   2.844  1.00  0.00    +0.000 H 
BRANCH   46   44
ATOM     44  C33 UNL A   1       8.880  47.088   5.321  1.00  0.00    +0.000 C 
ATOM     45  O10 UNL A   1       7.917  47.768   5.654  1.00  0.00    +0.000 O 
BRANCH   44   43
ATOM     43  N2  UNL A   1       8.952  45.754   5.653  1.00  0.00    +0.000 N 
ATOM    139  H31 UNL A   1       8.748  45.121   4.928  1.00  0.00    +0.000 H 
BRANCH   43   42
ATOM    137  H29 UNL A   1       8.886  45.773   7.715  1.00  0.00    +0.000 H 
ATOM     42  C32 UNL A   1       9.289  45.158   6.938  1.00  0.00    +0.000 C 
ATOM    138  H30 UNL A   1       8.874  44.172   6.953  1.00  0.00    +0.000 H 
BRANCH   42   41
ATOM     41  C31 UNL A   1      10.789  45.026   7.152  1.00  0.00    +0.000 C 
ATOM    135  H27 UNL A   1      11.010  43.997   7.338  1.00  0.00    +0.000 H 
ATOM    136  H28 UNL A   1      11.255  45.404   6.265  1.00  0.00    +0.000 H 
BRANCH   41   40
ATOM    133  H25 UNL A   1      10.746  46.730   8.411  1.00  0.00    +0.000 H 
ATOM    134  H26 UNL A   1      11.312  45.211   9.172  1.00  0.00    +0.000 H 
ATOM     40  C30 UNL A   1      11.345  45.849   8.312  1.00  0.00    +0.000 C 
BRANCH   40   39
ATOM    131  H23 UNL A   1      13.420  45.411   8.235  1.00  0.00    +0.000 H 
ATOM    132  H24 UNL A   1      12.871  46.778   7.215  1.00  0.00    +0.000 H 
ATOM     39  C29 UNL A   1      12.806  46.285   8.163  1.00  0.00    +0.000 C 
BRANCH   39   38
ATOM    129  H21 UNL A   1      12.996  46.963  10.171  1.00  0.00    +0.000 H 
ATOM    130  H22 UNL A   1      14.363  47.353   9.097  1.00  0.00    +0.000 H 
ATOM     38  C28 UNL A   1      13.300  47.299   9.202  1.00  0.00    +0.000 C 
BRANCH   38   37
ATOM     37  C27 UNL A   1      12.766  48.716   8.996  1.00  0.00    +0.000 C 
ATOM    127  H19 UNL A   1      13.545  49.417   9.210  1.00  0.00    +0.000 H 
ATOM    128  H20 UNL A   1      12.441  48.811   7.980  1.00  0.00    +0.000 H 
BRANCH   37   36
ATOM     36  N1  UNL A   1      11.638  48.984   9.862  1.00  0.00    +0.000 N 
ATOM    126  H18 UNL A   1      10.798  49.325   9.481  1.00  0.00    +0.000 H 
BRANCH   36    2
ATOM      1  O1  UNL A   1      11.089  47.921  11.815  1.00  0.00    +0.000 O 
ATOM      2  C1  UNL A   1      11.735  48.763  11.202  1.00  0.00    +0.000 C 
BRANCH    2    3
ATOM      3  C2  UNL A   1      12.711  49.592  11.940  1.00  0.00    +0.000 C 
ATOM    109  H1  UNL A   1      13.649  49.174  12.046  1.00  0.00    +0.000 H 
BRANCH    3    4
ATOM      4  C3  UNL A   1      12.562  50.814  12.498  1.00  0.00    +0.000 C 
ATOM    110  H2  UNL A   1      12.186  50.887  13.456  1.00  0.00    +0.000 H 
BRANCH    4    5
ATOM      5  C4  UNL A   1      12.942  52.114  11.732  1.00  0.00    +0.000 C 
ATOM      6  C5  UNL A   1      11.655  52.886  11.625  1.00  0.00    +0.000 C 
ATOM      7  C6  UNL A   1      11.396  53.977  12.359  1.00  0.00    +0.000 C 
ATOM      9  C7  UNL A   1      12.434  54.568  13.267  1.00  0.00    +0.000 C 
ATOM     10  O3  UNL A   1      12.159  55.555  13.940  1.00  0.00    +0.000 O 
ATOM     11  C8  UNL A   1      13.791  53.972  13.259  1.00  0.00    +0.000 C 
ATOM     12  C9  UNL A   1      13.981  52.865  12.536  1.00  0.00    +0.000 C 
ATOM     13  C10 UNL A   1      15.290  52.216  12.270  1.00  0.00    +0.000 C 
ATOM     14  O4  UNL A   1      16.285  52.280  12.947  1.00  0.00    +0.000 O 
ATOM     15  C11 UNL A   1      15.128  51.554  10.947  1.00  0.00    +0.000 C 
ATOM     16  C12 UNL A   1      16.112  50.962  10.266  1.00  0.00    +0.000 C 
ATOM     17  C13 UNL A   1      15.930  50.744   8.824  1.00  0.00    +0.000 C 
ATOM     18  C14 UNL A   1      16.357  49.543   8.238  1.00  0.00    +0.000 C 
ATOM     19  C15 UNL A   1      16.294  49.398   6.853  1.00  0.00    +0.000 C 
ATOM     21  C16 UNL A   1      15.851  50.445   6.050  1.00  0.00    +0.000 C 
ATOM     23  C17 UNL A   1      15.433  51.639   6.611  1.00  0.00    +0.000 C 
ATOM     24  C18 UNL A   1      15.425  51.776   8.000  1.00  0.00    +0.000 C 
ATOM     25  O7  UNL A   1      15.032  53.004   8.461  1.00  0.00    +0.000 O 
ATOM     26  C19 UNL A   1      13.965  53.106   9.442  1.00  0.00    +0.000 C 
ATOM     35  C26 UNL A   1      13.750  51.880  10.401  1.00  0.00    +0.000 C 
ATOM    111  H3  UNL A   1      10.940  52.562  10.957  1.00  0.00    +0.000 H 
ATOM    113  H5  UNL A   1      14.564  54.399  13.794  1.00  0.00    +0.000 H 
ATOM    114  H6  UNL A   1      16.979  50.665  10.740  1.00  0.00    +0.000 H 
ATOM    115  H7  UNL A   1      16.714  48.775   8.826  1.00  0.00    +0.000 H 
ATOM    118  H10 UNL A   1      15.130  52.421   6.009  1.00  0.00    +0.000 H 
ATOM    119  H11 UNL A   1      14.269  53.836  10.164  1.00  0.00    +0.000 H 
ATOM    125  H17 UNL A   1      13.219  51.166   9.807  1.00  0.00    +0.000 H 
BRANCH    7    8
ATOM    112  H4  UNL A   1       9.454  54.180  11.843  1.00  0.00    +0.000 H 
ATOM      8  O2  UNL A   1      10.166  54.600  12.286  1.00  0.00    +0.000 O 
ENDBRANCH    7    8
BRANCH   19   20
ATOM    116  H8  UNL A   1      17.474  48.224   5.731  1.00  0.00    +0.000 H 
ATOM     20  O5  UNL A   1      16.677  48.246   6.224  1.00  0.00    +0.000 O 
ENDBRANCH   19   20
BRANCH   21   22
ATOM    117  H9  UNL A   1      16.516  50.679   4.173  1.00  0.00    +0.000 H 
ATOM     22  O6  UNL A   1      15.828  50.310   4.692  1.00  0.00    +0.000 O 
ENDBRANCH   21   22
BRANCH   26   27
ATOM     34  C25 UNL A   1      11.814  52.667   8.130  1.00  0.00    +0.000 C 
ATOM     28  C21 UNL A   1      12.413  54.944   8.648  1.00  0.00    +0.000 C 
ATOM    120  H12 UNL A   1      13.110  55.631   8.974  1.00  0.00    +0.000 H 
ATOM    121  H13 UNL A   1      10.957  56.398   8.163  1.00  0.00    +0.000 H 
ATOM     27  C20 UNL A   1      12.710  53.571   8.718  1.00  0.00    +0.000 C 
ATOM    124  H16 UNL A   1      12.030  51.658   8.123  1.00  0.00    +0.000 H 
ATOM     29  C22 UNL A   1      11.191  55.392   8.144  1.00  0.00    +0.000 C 
ATOM     30  C23 UNL A   1      10.291  54.474   7.616  1.00  0.00    +0.000 C 
ATOM     32  C24 UNL A   1      10.630  53.127   7.555  1.00  0.00    +0.000 C 
BRANCH   30   31
ATOM    122  H14 UNL A   1       8.700  55.687   7.473  1.00  0.00    +0.000 H 
ATOM     31  O8  UNL A   1       9.078  54.891   7.152  1.00  0.00    +0.000 O 
ENDBRANCH   30   31
BRANCH   32   33
ATOM     33  O9  UNL A   1       9.785  52.241   6.948  1.00  0.00    +0.000 O 
ATOM    123  H15 UNL A   1      10.038  51.345   6.851  1.00  0.00    +0.000 H 
ENDBRANCH   32   33
ENDBRANCH   26   27
ENDBRANCH    4    5
ENDBRANCH    3    4
ENDBRANCH    2    3
ENDBRANCH   36    2
ENDBRANCH   37   36
ENDBRANCH   38   37
ENDBRANCH   39   38
ENDBRANCH   40   39
ENDBRANCH   41   40
ENDBRANCH   42   41
ENDBRANCH   43   42
ENDBRANCH   44   43
ENDBRANCH   46   44
ENDBRANCH   50   49
BRANCH   54   55
ATOM     65  F5  UNL A   1      15.572  48.938  -2.977  1.00  0.00    +0.000 F 
ATOM     55  C42 UNL A   1      17.162  48.553  -1.248  1.00  0.00    +0.000 C 
ATOM     56  C43 UNL A   1      18.198  47.743  -0.762  1.00  0.00    +0.000 C 
ATOM     57  F1  UNL A   1      18.806  48.045   0.395  1.00  0.00    +0.000 F 
ATOM     58  C44 UNL A   1      18.632  46.628  -1.477  1.00  0.00    +0.000 C 
ATOM     59  F2  UNL A   1      19.644  45.886  -1.009  1.00  0.00    +0.000 F 
ATOM     60  C45 UNL A   1      18.022  46.289  -2.676  1.00  0.00    +0.000 C 
ATOM     61  F3  UNL A   1      18.432  45.208  -3.355  1.00  0.00    +0.000 F 
ATOM     62  C46 UNL A   1      16.990  47.071  -3.171  1.00  0.00    +0.000 C 
ATOM     63  F4  UNL A   1      16.393  46.739  -4.324  1.00  0.00    +0.000 F 
ATOM     64  C47 UNL A   1      16.570  48.199  -2.471  1.00  0.00    +0.000 C 
ENDBRANCH   54   55
BRANCH   71   72
ATOM     72  C53 UNL A   1      18.639  55.550  -0.446  1.00  0.00    +0.000 C 
ATOM     73  C54 UNL A   1      19.760  55.912   0.314  1.00  0.00    +0.000 C 
ATOM     74  F6  UNL A   1      19.920  55.425   1.555  1.00  0.00    +0.000 F 
ATOM     75  C55 UNL A   1      20.707  56.801  -0.187  1.00  0.00    +0.000 C 
ATOM     76  F7  UNL A   1      21.752  57.161   0.569  1.00  0.00    +0.000 F 
ATOM     77  C56 UNL A   1      20.564  57.322  -1.466  1.00  0.00    +0.000 C 
ATOM     78  F8  UNL A   1      21.482  58.169  -1.952  1.00  0.00    +0.000 F 
ATOM     79  C57 UNL A   1      19.468  56.967  -2.238  1.00  0.00    +0.000 C 
ATOM     80  F9  UNL A   1      19.335  57.460  -3.477  1.00  0.00    +0.000 F 
ATOM     81  C58 UNL A   1      18.507  56.098  -1.729  1.00  0.00    +0.000 C 
ATOM     82  F10 UNL A   1      17.455  55.776  -2.498  1.00  0.00    +0.000 F 
ENDBRANCH   71   72
BRANCH   86   87
ATOM     97  F15 UNL A   1      11.883  56.667   2.216  1.00  0.00    +0.000 F 
ATOM     87  C62 UNL A   1      13.320  56.101   4.023  1.00  0.00    +0.000 C 
ATOM     88  C63 UNL A   1      13.753  56.403   5.321  1.00  0.00    +0.000 C 
ATOM     89  F11 UNL A   1      14.683  55.636   5.911  1.00  0.00    +0.000 F 
ATOM     90  C64 UNL A   1      13.217  57.478   6.024  1.00  0.00    +0.000 C 
ATOM     91  F12 UNL A   1      13.628  57.730   7.275  1.00  0.00    +0.000 F 
ATOM     92  C65 UNL A   1      12.254  58.285   5.435  1.00  0.00    +0.000 C 
ATOM     93  F13 UNL A   1      11.748  59.328   6.108  1.00  0.00    +0.000 F 
ATOM     94  C66 UNL A   1      11.813  58.007   4.150  1.00  0.00    +0.000 C 
ATOM     95  F14 UNL A   1      10.894  58.792   3.572  1.00  0.00    +0.000 F 
ATOM     96  C67 UNL A   1      12.330  56.916   3.457  1.00  0.00    +0.000 C 
ENDBRANCH   86   87
TORSDOF 23
ENDMDL
MODEL 4
REMARK VINA RESULT:      -8.4      2.761      8.158
ROOT
ATOM    142  H34 UNL A   1      18.148  50.863  -2.175  1.00  0.00    +0.000 H 
ATOM    143  H35 UNL A   1      18.617  53.374  -1.653  1.00  0.00    +0.000 H 
ATOM    144  H36 UNL A   1      16.059  51.896   1.249  1.00  0.00    +0.000 H 
ATOM    145  H37 UNL A   1      12.378  52.872   6.361  1.00  0.00    +0.000 H 
ATOM    146  H38 UNL A   1      12.145  50.367   6.020  1.00  0.00    +0.000 H 
ATOM    147  H39 UNL A   1      14.685  51.819   3.066  1.00  0.00    +0.000 H 
ATOM    148  H40 UNL A   1      15.363  56.687   4.127  1.00  0.00    +0.000 H 
ATOM    149  H41 UNL A   1      16.866  56.801   2.057  1.00  0.00    +0.000 H 
ATOM    150  H42 UNL A   1      15.328  47.026   0.285  1.00  0.00    +0.000 H 
ATOM    151  H43 UNL A   1      13.672  46.935   2.236  1.00  0.00    +0.000 H 
ATOM     50  C38 UNL A   1      13.498  49.370   3.721  1.00  0.00    +0.000 C 
ATOM     51  C39 UNL A   1      14.306  49.099   2.480  1.00  0.00    +0.000 C 
ATOM     52  N3  UNL A   1      15.085  49.909   1.806  1.00  0.00    +0.000 N 
ATOM     53  C40 UNL A   1      15.607  49.158   0.760  1.00  0.00    +0.000 C 
ATOM     54  C41 UNL A   1      16.438  49.555  -0.233  1.00  0.00    +0.000 C 
ATOM     66  C48 UNL A   1      16.937  50.895  -0.389  1.00  0.00    +0.000 C 
ATOM     67  C49 UNL A   1      17.770  51.395  -1.376  1.00  0.00    +0.000 C 
ATOM     68  C50 UNL A   1      18.009  52.746  -1.104  1.00  0.00    +0.000 C 
ATOM     69  C51 UNL A   1      17.294  53.097   0.029  1.00  0.00    +0.000 C 
ATOM     70  N4  UNL A   1      16.644  51.952   0.459  1.00  0.00    +0.000 N 
ATOM     71  C52 UNL A   1      17.214  54.381   0.677  1.00  0.00    +0.000 C 
ATOM     83  C59 UNL A   1      16.448  54.660   1.759  1.00  0.00    +0.000 C 
ATOM     84  N5  UNL A   1      15.614  53.814   2.476  1.00  0.00    +0.000 N 
ATOM     85  C60 UNL A   1      15.119  54.538   3.448  1.00  0.00    +0.000 C 
ATOM     86  C61 UNL A   1      14.158  54.138   4.532  1.00  0.00    +0.000 C 
ATOM     98  C68 UNL A   1      13.754  52.856   4.613  1.00  0.00    +0.000 C 
ATOM     99  C69 UNL A   1      12.842  52.322   5.621  1.00  0.00    +0.000 C 
ATOM    100  C70 UNL A   1      12.703  51.003   5.429  1.00  0.00    +0.000 C 
ATOM    101  C71 UNL A   1      13.469  50.609   4.246  1.00  0.00    +0.000 C 
ATOM    102  N6  UNL A   1      14.076  51.770   3.839  1.00  0.00    +0.000 N 
ATOM    103  C72 UNL A   1      15.586  55.931   3.461  1.00  0.00    +0.000 C 
ATOM    104  C73 UNL A   1      16.372  55.959   2.393  1.00  0.00    +0.000 C 
ATOM    105  C74 UNL A   1      15.079  47.817   0.900  1.00  0.00    +0.000 C 
ATOM    106  C75 UNL A   1      14.234  47.740   1.918  1.00  0.00    +0.000 C 
ENDROOT
BRANCH   50   49
ATOM    107  C76 UNL A   1      11.270  48.299   4.212  1.00  0.00    +0.000 C 
ATOM    108  C77 UNL A   1      10.503  47.377   4.929  1.00  0.00    +0.000 C 
ATOM    140  H32 UNL A   1      12.995  45.531   6.208  1.00  0.00    +0.000 H 
ATOM     46  C34 UNL A   1      11.140  46.423   5.726  1.00  0.00    +0.000 C 
ATOM     47  C35 UNL A   1      12.533  46.320   5.729  1.00  0.00    +0.000 C 
ATOM     48  C36 UNL A   1      13.292  47.286   5.080  1.00  0.00    +0.000 C 
ATOM    141  H33 UNL A   1      14.321  47.260   5.149  1.00  0.00    +0.000 H 
ATOM     49  C37 UNL A   1      12.670  48.299   4.331  1.00  0.00    +0.000 C 
ATOM    152  H44 UNL A   1      10.807  48.982   3.592  1.00  0.00    +0.000 H 
ATOM    153  H45 UNL A   1       9.473  47.402   4.872  1.00  0.00    +0.000 H 
BRANCH   46   44
ATOM     44  C33 UNL A   1      10.329  45.590   6.637  1.00  0.00    +0.000 C 
ATOM     45  O10 UNL A   1      10.167  44.397   6.405  1.00  0.00    +0.000 O 
BRANCH   44   43
ATOM     43  N2  UNL A   1       9.722  46.187   7.718  1.00  0.00    +0.000 N 
ATOM    139  H31 UNL A   1       8.849  46.605   7.542  1.00  0.00    +0.000 H 
BRANCH   43   42
ATOM    137  H29 UNL A   1      10.020  47.273   9.447  1.00  0.00    +0.000 H 
ATOM     42  C32 UNL A   1      10.204  46.282   9.089  1.00  0.00    +0.000 C 
ATOM    138  H30 UNL A   1       9.683  45.546   9.664  1.00  0.00    +0.000 H 
BRANCH   42   41
ATOM     41  C31 UNL A   1      11.692  45.990   9.213  1.00  0.00    +0.000 C 
ATOM    135  H27 UNL A   1      11.868  45.564  10.178  1.00  0.00    +0.000 H 
ATOM    136  H28 UNL A   1      11.937  45.327   8.408  1.00  0.00    +0.000 H 
BRANCH   41   40
ATOM    133  H25 UNL A   1      12.563  47.521   8.035  1.00  0.00    +0.000 H 
ATOM    134  H26 UNL A   1      12.228  47.944   9.742  1.00  0.00    +0.000 H 
ATOM     40  C30 UNL A   1      12.598  47.209   9.058  1.00  0.00    +0.000 C 
BRANCH   40   39
ATOM    131  H23 UNL A   1      14.267  47.525  10.332  1.00  0.00    +0.000 H 
ATOM    132  H24 UNL A   1      14.184  45.922   9.535  1.00  0.00    +0.000 H 
ATOM     39  C29 UNL A   1      14.067  46.981   9.432  1.00  0.00    +0.000 C 
BRANCH   39   38
ATOM    129  H21 UNL A   1      15.224  46.614   7.684  1.00  0.00    +0.000 H 
ATOM    130  H22 UNL A   1      14.699  48.301   7.915  1.00  0.00    +0.000 H 
ATOM     38  C28 UNL A   1      15.090  47.419   8.376  1.00  0.00    +0.000 C 
BRANCH   38   37
ATOM     37  C27 UNL A   1      16.457  47.792   8.948  1.00  0.00    +0.000 C 
ATOM    127  H19 UNL A   1      16.684  47.138   9.764  1.00  0.00    +0.000 H 
ATOM    128  H20 UNL A   1      17.187  47.695   8.172  1.00  0.00    +0.000 H 
BRANCH   37   36
ATOM     36  N1  UNL A   1      16.474  49.159   9.422  1.00  0.00    +0.000 N 
ATOM    126  H18 UNL A   1      16.568  49.343  10.383  1.00  0.00    +0.000 H 
BRANCH   36    2
ATOM      1  O1  UNL A   1      17.178  50.450   7.667  1.00  0.00    +0.000 O 
ATOM      2  C1  UNL A   1      16.360  50.191   8.542  1.00  0.00    +0.000 C 
BRANCH    2    3
ATOM      3  C2  UNL A   1      15.146  51.027   8.655  1.00  0.00    +0.000 C 
ATOM    109  H1  UNL A   1      15.314  52.046   8.640  1.00  0.00    +0.000 H 
BRANCH    3    4
ATOM      4  C3  UNL A   1      13.852  50.661   8.777  1.00  0.00    +0.000 C 
ATOM    110  H2  UNL A   1      13.394  50.163   7.997  1.00  0.00    +0.000 H 
BRANCH    4    5
ATOM      5  C4  UNL A   1      13.031  50.970  10.062  1.00  0.00    +0.000 C 
ATOM      6  C5  UNL A   1      13.891  50.477  11.194  1.00  0.00    +0.000 C 
ATOM      7  C6  UNL A   1      14.560  51.300  12.013  1.00  0.00    +0.000 C 
ATOM      9  C7  UNL A   1      14.402  52.789  11.918  1.00  0.00    +0.000 C 
ATOM     10  O3  UNL A   1      15.043  53.515  12.670  1.00  0.00    +0.000 O 
ATOM     11  C8  UNL A   1      13.409  53.328  10.958  1.00  0.00    +0.000 C 
ATOM     12  C9  UNL A   1      12.799  52.463  10.143  1.00  0.00    +0.000 C 
ATOM     13  C10 UNL A   1      11.668  52.778   9.234  1.00  0.00    +0.000 C 
ATOM     14  O4  UNL A   1      11.394  53.850   8.757  1.00  0.00    +0.000 O 
ATOM     15  C11 UNL A   1      10.902  51.506   9.121  1.00  0.00    +0.000 C 
ATOM     16  C12 UNL A   1       9.727  51.379   8.499  1.00  0.00    +0.000 C 
ATOM     17  C13 UNL A   1       8.887  50.218   8.827  1.00  0.00    +0.000 C 
ATOM     18  C14 UNL A   1       8.197  49.543   7.808  1.00  0.00    +0.000 C 
ATOM     19  C15 UNL A   1       7.307  48.524   8.145  1.00  0.00    +0.000 C 
ATOM     21  C16 UNL A   1       7.070  48.201   9.478  1.00  0.00    +0.000 C 
ATOM     23  C17 UNL A   1       7.738  48.861  10.495  1.00  0.00    +0.000 C 
ATOM     24  C18 UNL A   1       8.682  49.837  10.172  1.00  0.00    +0.000 C 
ATOM     25  O7  UNL A   1       9.262  50.461  11.245  1.00  0.00    +0.000 O 
ATOM     26  C19 UNL A   1      10.710  50.517  11.359  1.00  0.00    +0.000 C 
ATOM     35  C26 UNL A   1      11.539  50.468  10.025  1.00  0.00    +0.000 C 
ATOM    111  H3  UNL A   1      13.970  49.460  11.347  1.00  0.00    +0.000 H 
ATOM    113  H5  UNL A   1      13.197  54.336  10.921  1.00  0.00    +0.000 H 
ATOM    114  H6  UNL A   1       9.416  52.077   7.806  1.00  0.00    +0.000 H 
ATOM    115  H7  UNL A   1       8.346  49.799   6.820  1.00  0.00    +0.000 H 
ATOM    118  H10 UNL A   1       7.538  48.635  11.482  1.00  0.00    +0.000 H 
ATOM    119  H11 UNL A   1      10.963  51.506  11.681  1.00  0.00    +0.000 H 
ATOM    125  H17 UNL A   1      11.539  49.435   9.748  1.00  0.00    +0.000 H 
BRANCH    7    8
ATOM    112  H4  UNL A   1      15.069  50.219  13.641  1.00  0.00    +0.000 H 
ATOM      8  O2  UNL A   1      15.404  50.797  12.983  1.00  0.00    +0.000 O 
ENDBRANCH    7    8
BRANCH   19   20
ATOM    116  H8  UNL A   1       5.684  47.757   7.245  1.00  0.00    +0.000 H 
ATOM     20  O5  UNL A   1       6.619  47.818   7.198  1.00  0.00    +0.000 O 
ENDBRANCH   19   20
BRANCH   21   22
ATOM    117  H9  UNL A   1       5.775  46.712   9.126  1.00  0.00    +0.000 H 
ATOM     22  O6  UNL A   1       6.169  47.229   9.801  1.00  0.00    +0.000 O 
ENDBRANCH   21   22
BRANCH   26   27
ATOM     34  C25 UNL A   1      11.232  48.129  12.112  1.00  0.00    +0.000 C 
ATOM     28  C21 UNL A   1      11.463  49.924  13.703  1.00  0.00    +0.000 C 
ATOM    120  H12 UNL A   1      11.292  50.906  13.974  1.00  0.00    +0.000 H 
ATOM    121  H13 UNL A   1      12.319  49.386  15.560  1.00  0.00    +0.000 H 
ATOM     27  C20 UNL A   1      11.133  49.496  12.405  1.00  0.00    +0.000 C 
ATOM    124  H16 UNL A   1      10.951  47.780  11.182  1.00  0.00    +0.000 H 
ATOM     29  C22 UNL A   1      12.017  49.043  14.634  1.00  0.00    +0.000 C 
ATOM     30  C23 UNL A   1      12.158  47.701  14.305  1.00  0.00    +0.000 C 
ATOM     32  C24 UNL A   1      11.710  47.238  13.072  1.00  0.00    +0.000 C 
BRANCH   30   31
ATOM    122  H14 UNL A   1      12.426  45.948  15.240  1.00  0.00    +0.000 H 
ATOM     31  O8  UNL A   1      12.730  46.833  15.188  1.00  0.00    +0.000 O 
ENDBRANCH   30   31
BRANCH   32   33
ATOM     33  O9  UNL A   1      11.763  45.903  12.788  1.00  0.00    +0.000 O 
ATOM    123  H15 UNL A   1      11.365  45.285  13.370  1.00  0.00    +0.000 H 
ENDBRANCH   32   33
ENDBRANCH   26   27
ENDBRANCH    4    5
ENDBRANCH    3    4
ENDBRANCH    2    3
ENDBRANCH   36    2
ENDBRANCH   37   36
ENDBRANCH   38   37
ENDBRANCH   39   38
ENDBRANCH   40   39
ENDBRANCH   41   40
ENDBRANCH   42   41
ENDBRANCH   43   42
ENDBRANCH   44   43
ENDBRANCH   46   44
ENDBRANCH   50   49
BRANCH   54   55
ATOM     65  F5  UNL A   1      14.974  48.984  -2.603  1.00  0.00    +0.000 F 
ATOM     55  C42 UNL A   1      16.870  48.527  -1.237  1.00  0.00    +0.000 C 
ATOM     56  C43 UNL A   1      18.018  47.746  -1.041  1.00  0.00    +0.000 C 
ATOM     57  F1  UNL A   1      18.808  47.962   0.021  1.00  0.00    +0.000 F 
ATOM     58  C44 UNL A   1      18.373  46.754  -1.952  1.00  0.00    +0.000 C 
ATOM     59  F2  UNL A   1      19.492  46.041  -1.762  1.00  0.00    +0.000 F 
ATOM     60  C45 UNL A   1      17.575  46.507  -3.060  1.00  0.00    +0.000 C 
ATOM     61  F3  UNL A   1      17.912  45.542  -3.928  1.00  0.00    +0.000 F 
ATOM     62  C46 UNL A   1      16.431  47.260  -3.269  1.00  0.00    +0.000 C 
ATOM     63  F4  UNL A   1      15.653  47.016  -4.333  1.00  0.00    +0.000 F 
ATOM     64  C47 UNL A   1      16.086  48.270  -2.372  1.00  0.00    +0.000 C 
ENDBRANCH   54   55
BRANCH   71   72
ATOM     72  C53 UNL A   1      18.033  55.500   0.108  1.00  0.00    +0.000 C 
ATOM     73  C54 UNL A   1      17.579  56.251  -0.985  1.00  0.00    +0.000 C 
ATOM     74  F6  UNL A   1      16.423  55.934  -1.588  1.00  0.00    +0.000 F 
ATOM     75  C55 UNL A   1      18.327  57.315  -1.482  1.00  0.00    +0.000 C 
ATOM     76  F7  UNL A   1      17.892  57.997  -2.549  1.00  0.00    +0.000 F 
ATOM     77  C56 UNL A   1      19.527  57.663  -0.878  1.00  0.00    +0.000 C 
ATOM     78  F8  UNL A   1      20.241  58.695  -1.351  1.00  0.00    +0.000 F 
ATOM     79  C57 UNL A   1      19.988  56.941   0.212  1.00  0.00    +0.000 C 
ATOM     80  F9  UNL A   1      21.141  57.284   0.802  1.00  0.00    +0.000 F 
ATOM     81  C58 UNL A   1      19.255  55.861   0.694  1.00  0.00    +0.000 C 
ATOM     82  F10 UNL A   1      19.728  55.177   1.747  1.00  0.00    +0.000 F 
ENDBRANCH   71   72
BRANCH   86   87
ATOM     97  F15 UNL A   1      15.048  54.262   7.233  1.00  0.00    +0.000 F 
ATOM     87  C62 UNL A   1      13.653  55.129   5.515  1.00  0.00    +0.000 C 
ATOM     88  C63 UNL A   1      12.677  56.067   5.153  1.00  0.00    +0.000 C 
ATOM     89  F11 UNL A   1      12.222  56.106   3.891  1.00  0.00    +0.000 F 
ATOM     90  C64 UNL A   1      12.183  56.982   6.079  1.00  0.00    +0.000 C 
ATOM     91  F12 UNL A   1      11.270  57.887   5.701  1.00  0.00    +0.000 F 
ATOM     92  C65 UNL A   1      12.639  56.962   7.389  1.00  0.00    +0.000 C 
ATOM     93  F13 UNL A   1      12.152  57.834   8.283  1.00  0.00    +0.000 F 
ATOM     94  C66 UNL A   1      13.601  56.039   7.771  1.00  0.00    +0.000 C 
ATOM     95  F14 UNL A   1      14.034  56.007   9.039  1.00  0.00    +0.000 F 
ATOM     96  C67 UNL A   1      14.114  55.142   6.839  1.00  0.00    +0.000 C 
ENDBRANCH   86   87
TORSDOF 23
ENDMDL
MODEL 5
REMARK VINA RESULT:      -8.2      1.293      2.016
ROOT
ATOM    142  H34 UNL A   1      18.661  53.340  -0.976  1.00  0.00    +0.000 H 
ATOM    143  H35 UNL A   1      18.228  50.824  -1.505  1.00  0.00    +0.000 H 
ATOM    144  H36 UNL A   1      15.862  51.903   1.718  1.00  0.00    +0.000 H 
ATOM    145  H37 UNL A   1      11.769  50.290   6.330  1.00  0.00    +0.000 H 
ATOM    146  H38 UNL A   1      11.974  52.798   6.668  1.00  0.00    +0.000 H 
ATOM    147  H39 UNL A   1      14.392  51.748   3.453  1.00  0.00    +0.000 H 
ATOM    148  H40 UNL A   1      13.555  46.853   2.663  1.00  0.00    +0.000 H 
ATOM    149  H41 UNL A   1      15.246  47.001   0.746  1.00  0.00    +0.000 H 
ATOM    150  H42 UNL A   1      16.616  56.789   2.580  1.00  0.00    +0.000 H 
ATOM    151  H43 UNL A   1      15.077  56.621   4.620  1.00  0.00    +0.000 H 
ATOM     50  C38 UNL A   1      13.843  54.062   4.930  1.00  0.00    +0.000 C 
ATOM     51  C39 UNL A   1      14.853  54.483   3.895  1.00  0.00    +0.000 C 
ATOM     52  N3  UNL A   1      15.395  53.778   2.933  1.00  0.00    +0.000 N 
ATOM     53  C40 UNL A   1      16.244  54.644   2.255  1.00  0.00    +0.000 C 
ATOM     54  C41 UNL A   1      17.056  54.380   1.203  1.00  0.00    +0.000 C 
ATOM     66  C48 UNL A   1      17.193  53.088   0.585  1.00  0.00    +0.000 C 
ATOM     67  C49 UNL A   1      18.004  52.722  -0.476  1.00  0.00    +0.000 C 
ATOM     68  C50 UNL A   1      17.783  51.368  -0.749  1.00  0.00    +0.000 C 
ATOM     69  C51 UNL A   1      16.863  50.882   0.165  1.00  0.00    +0.000 C 
ATOM     70  N4  UNL A   1      16.506  51.949   0.975  1.00  0.00    +0.000 N 
ATOM     71  C52 UNL A   1      16.341  49.545   0.288  1.00  0.00    +0.000 C 
ATOM     83  C59 UNL A   1      15.476  49.133   1.246  1.00  0.00    +0.000 C 
ATOM     84  N5  UNL A   1      14.903  49.866   2.275  1.00  0.00    +0.000 N 
ATOM     85  C60 UNL A   1      14.117  49.036   2.913  1.00  0.00    +0.000 C 
ATOM     86  C61 UNL A   1      13.245  49.287   4.111  1.00  0.00    +0.000 C 
ATOM     98  C68 UNL A   1      13.165  50.532   4.616  1.00  0.00    +0.000 C 
ATOM     99  C69 UNL A   1      12.348  50.927   5.760  1.00  0.00    +0.000 C 
ATOM    100  C70 UNL A   1      12.472  52.248   5.951  1.00  0.00    +0.000 C 
ATOM    101  C71 UNL A   1      13.426  52.783   4.979  1.00  0.00    +0.000 C 
ATOM    102  N6  UNL A   1      13.770  51.697   4.216  1.00  0.00    +0.000 N 
ATOM    103  C72 UNL A   1      14.100  47.675   2.358  1.00  0.00    +0.000 C 
ATOM    104  C73 UNL A   1      14.968  47.782   1.361  1.00  0.00    +0.000 C 
ATOM    105  C74 UNL A   1      16.129  55.936   2.897  1.00  0.00    +0.000 C 
ATOM    106  C75 UNL A   1      15.319  55.878   3.944  1.00  0.00    +0.000 C 
ENDROOT
BRANCH   50   49
ATOM    107  C76 UNL A   1      12.263  55.874   5.687  1.00  0.00    +0.000 C 
ATOM    108  C77 UNL A   1      11.927  56.886   6.590  1.00  0.00    +0.000 C 
ATOM    140  H32 UNL A   1      14.078  56.110   9.044  1.00  0.00    +0.000 H 
ATOM     46  C34 UNL A   1      12.653  57.020   7.775  1.00  0.00    +0.000 C 
ATOM     47  C35 UNL A   1      13.640  56.089   8.110  1.00  0.00    +0.000 C 
ATOM     48  C36 UNL A   1      14.026  55.136   7.176  1.00  0.00    +0.000 C 
ATOM    141  H33 UNL A   1      14.810  54.500   7.388  1.00  0.00    +0.000 H 
ATOM     49  C37 UNL A   1      13.356  55.029   5.946  1.00  0.00    +0.000 C 
ATOM    152  H44 UNL A   1      11.707  55.745   4.827  1.00  0.00    +0.000 H 
ATOM    153  H45 UNL A   1      11.149  57.530   6.381  1.00  0.00    +0.000 H 
BRANCH   46   44
ATOM     44  C33 UNL A   1      12.431  58.209   8.624  1.00  0.00    +0.000 C 
ATOM     45  O10 UNL A   1      13.149  59.195   8.505  1.00  0.00    +0.000 O 
BRANCH   44   43
ATOM     43  N2  UNL A   1      11.440  58.168   9.577  1.00  0.00    +0.000 N 
ATOM    139  H31 UNL A   1      11.166  59.038   9.948  1.00  0.00    +0.000 H 
BRANCH   43   42
ATOM    137  H29 UNL A   1      11.314  56.131   9.880  1.00  0.00    +0.000 H 
ATOM     42  C32 UNL A   1      10.743  57.006  10.109  1.00  0.00    +0.000 C 
ATOM    138  H30 UNL A   1      10.638  57.150  11.164  1.00  0.00    +0.000 H 
BRANCH   42   41
ATOM     41  C31 UNL A   1       9.346  56.840   9.530  1.00  0.00    +0.000 C 
ATOM    135  H27 UNL A   1       8.646  56.854  10.339  1.00  0.00    +0.000 H 
ATOM    136  H28 UNL A   1       9.208  57.645   8.838  1.00  0.00    +0.000 H 
BRANCH   41   40
ATOM    133  H25 UNL A   1       8.252  55.072   9.117  1.00  0.00    +0.000 H 
ATOM    134  H26 UNL A   1       9.051  55.843   7.712  1.00  0.00    +0.000 H 
ATOM     40  C30 UNL A   1       9.131  55.551   8.739  1.00  0.00    +0.000 C 
BRANCH   40   39
ATOM    131  H23 UNL A   1      11.082  54.915   8.196  1.00  0.00    +0.000 H 
ATOM    132  H24 UNL A   1      10.540  54.457   9.841  1.00  0.00    +0.000 H 
ATOM     39  C29 UNL A   1      10.284  54.545   8.805  1.00  0.00    +0.000 C 
BRANCH   39   38
ATOM    129  H21 UNL A   1      10.863  52.622   8.100  1.00  0.00    +0.000 H 
ATOM    130  H22 UNL A   1       9.408  52.656   9.128  1.00  0.00    +0.000 H 
ATOM     38  C28 UNL A   1       9.947  53.125   8.333  1.00  0.00    +0.000 C 
BRANCH   38   37
ATOM     37  C27 UNL A   1       9.045  53.074   7.100  1.00  0.00    +0.000 C 
ATOM    127  H19 UNL A   1       8.388  53.918   7.114  1.00  0.00    +0.000 H 
ATOM    128  H20 UNL A   1       9.664  53.090   6.227  1.00  0.00    +0.000 H 
BRANCH   37   36
ATOM     36  N1  UNL A   1       8.255  51.861   7.078  1.00  0.00    +0.000 N 
ATOM    126  H18 UNL A   1       7.371  51.845   7.509  1.00  0.00    +0.000 H 
BRANCH   36    2
ATOM      1  O1  UNL A   1       8.954  50.658   5.259  1.00  0.00    +0.000 O 
ATOM      2  C1  UNL A   1       8.729  50.745   6.460  1.00  0.00    +0.000 C 
BRANCH    2    3
ATOM      3  C2  UNL A   1       9.006  49.578   7.325  1.00  0.00    +0.000 C 
ATOM    109  H1  UNL A   1       8.194  48.971   7.514  1.00  0.00    +0.000 H 
BRANCH    3    4
ATOM      4  C3  UNL A   1      10.162  49.187   7.906  1.00  0.00    +0.000 C 
ATOM    110  H2  UNL A   1      10.947  48.882   7.310  1.00  0.00    +0.000 H 
BRANCH    4    5
ATOM      5  C4  UNL A   1      10.340  49.184   9.452  1.00  0.00    +0.000 C 
ATOM      6  C5  UNL A   1       9.349  50.198   9.955  1.00  0.00    +0.000 C 
ATOM      7  C6  UNL A   1       8.210  49.860  10.576  1.00  0.00    +0.000 C 
ATOM      9  C7  UNL A   1       7.903  48.431  10.911  1.00  0.00    +0.000 C 
ATOM     10  O3  UNL A   1       6.844  48.152  11.462  1.00  0.00    +0.000 O 
ATOM     11  C8  UNL A   1       8.937  47.407  10.627  1.00  0.00    +0.000 C 
ATOM     12  C9  UNL A   1      10.035  47.796   9.974  1.00  0.00    +0.000 C 
ATOM     13  C10 UNL A   1      11.245  46.968   9.740  1.00  0.00    +0.000 C 
ATOM     14  O4  UNL A   1      11.307  45.765   9.694  1.00  0.00    +0.000 O 
ATOM     15  C11 UNL A   1      12.369  47.942   9.671  1.00  0.00    +0.000 C 
ATOM     16  C12 UNL A   1      13.661  47.611   9.603  1.00  0.00    +0.000 C 
ATOM     17  C13 UNL A   1      14.661  48.620   9.975  1.00  0.00    +0.000 C 
ATOM     18  C14 UNL A   1      15.839  48.750   9.224  1.00  0.00    +0.000 C 
ATOM     19  C15 UNL A   1      16.835  49.623   9.660  1.00  0.00    +0.000 C 
ATOM     21  C16 UNL A   1      16.686  50.333  10.848  1.00  0.00    +0.000 C 
ATOM     23  C17 UNL A   1      15.533  50.212  11.603  1.00  0.00    +0.000 C 
ATOM     24  C18 UNL A   1      14.498  49.394  11.147  1.00  0.00    +0.000 C 
ATOM     25  O7  UNL A   1      13.414  49.308  11.980  1.00  0.00    +0.000 O 
ATOM     26  C19 UNL A   1      12.081  49.585  11.472  1.00  0.00    +0.000 C 
ATOM     35  C26 UNL A   1      11.829  49.334   9.941  1.00  0.00    +0.000 C 
ATOM    111  H3  UNL A   1       9.554  51.199   9.815  1.00  0.00    +0.000 H 
ATOM    113  H5  UNL A   1       8.812  46.427  10.923  1.00  0.00    +0.000 H 
ATOM    114  H6  UNL A   1      13.950  46.668   9.296  1.00  0.00    +0.000 H 
ATOM    115  H7  UNL A   1      15.967  48.204   8.359  1.00  0.00    +0.000 H 
ATOM    118  H10 UNL A   1      15.439  50.721  12.497  1.00  0.00    +0.000 H 
ATOM    119  H11 UNL A   1      11.428  48.840  11.877  1.00  0.00    +0.000 H 
ATOM    125  H17 UNL A   1      12.257  50.186   9.456  1.00  0.00    +0.000 H 
BRANCH    7    8
ATOM    112  H4  UNL A   1       7.586  51.683  11.179  1.00  0.00    +0.000 H 
ATOM      8  O2  UNL A   1       7.293  50.825  10.941  1.00  0.00    +0.000 O 
ENDBRANCH    7    8
BRANCH   19   20
ATOM    116  H8  UNL A   1      18.023  49.637   8.041  1.00  0.00    +0.000 H 
ATOM     20  O5  UNL A   1      17.997  49.807   8.962  1.00  0.00    +0.000 O 
ENDBRANCH   19   20
BRANCH   21   22
ATOM    117  H9  UNL A   1      17.508  52.067  11.426  1.00  0.00    +0.000 H 
ATOM     22  O6  UNL A   1      17.681  51.157  11.287  1.00  0.00    +0.000 O 
ENDBRANCH   21   22
BRANCH   26   27
ATOM     34  C25 UNL A   1      10.869  51.147  13.095  1.00  0.00    +0.000 C 
ATOM     28  C21 UNL A   1      12.135  52.110  11.283  1.00  0.00    +0.000 C 
ATOM    120  H12 UNL A   1      12.635  52.002  10.387  1.00  0.00    +0.000 H 
ATOM    121  H13 UNL A   1      12.328  54.215  11.330  1.00  0.00    +0.000 H 
ATOM     27  C20 UNL A   1      11.675  50.967  11.962  1.00  0.00    +0.000 C 
ATOM    124  H16 UNL A   1      10.478  50.327  13.584  1.00  0.00    +0.000 H 
ATOM     29  C22 UNL A   1      11.925  53.389  11.802  1.00  0.00    +0.000 C 
ATOM     30  C23 UNL A   1      11.169  53.543  12.958  1.00  0.00    +0.000 C 
ATOM     32  C24 UNL A   1      10.594  52.431  13.564  1.00  0.00    +0.000 C 
BRANCH   30   31
ATOM    122  H14 UNL A   1      10.321  55.349  13.155  1.00  0.00    +0.000 H 
ATOM     31  O8  UNL A   1      10.984  54.782  13.498  1.00  0.00    +0.000 O 
ENDBRANCH   30   31
BRANCH   32   33
ATOM     33  O9  UNL A   1       9.774  52.595  14.644  1.00  0.00    +0.000 O 
ATOM    123  H15 UNL A   1      10.041  53.142  15.356  1.00  0.00    +0.000 H 
ENDBRANCH   32   33
ENDBRANCH   26   27
ENDBRANCH    4    5
ENDBRANCH    3    4
ENDBRANCH    2    3
ENDBRANCH   36    2
ENDBRANCH   37   36
ENDBRANCH   38   37
ENDBRANCH   39   38
ENDBRANCH   40   39
ENDBRANCH   41   40
ENDBRANCH   42   41
ENDBRANCH   43   42
ENDBRANCH   44   43
ENDBRANCH   46   44
ENDBRANCH   50   49
BRANCH   54   55
ATOM     65  F5  UNL A   1      16.238  55.909  -1.050  1.00  0.00    +0.000 F 
ATOM     55  C42 UNL A   1      17.864  55.513   0.642  1.00  0.00    +0.000 C 
ATOM     56  C43 UNL A   1      19.111  55.862   1.181  1.00  0.00    +0.000 C 
ATOM     57  F1  UNL A   1      19.574  55.236   2.272  1.00  0.00    +0.000 F 
ATOM     58  C44 UNL A   1      19.878  56.876   0.611  1.00  0.00    +0.000 C 
ATOM     59  F2  UNL A   1      21.052  57.215   1.161  1.00  0.00    +0.000 F 
ATOM     60  C45 UNL A   1      19.426  57.541  -0.519  1.00  0.00    +0.000 C 
ATOM     61  F3  UNL A   1      20.172  58.507  -1.073  1.00  0.00    +0.000 F 
ATOM     62  C46 UNL A   1      18.200  57.206  -1.074  1.00  0.00    +0.000 C 
ATOM     63  F4  UNL A   1      17.767  57.840  -2.172  1.00  0.00    +0.000 F 
ATOM     64  C47 UNL A   1      17.420  56.209  -0.493  1.00  0.00    +0.000 C 
ENDBRANCH   54   55
BRANCH   71   72
ATOM     72  C53 UNL A   1      16.793  48.526  -0.715  1.00  0.00    +0.000 C 
ATOM     73  C54 UNL A   1      17.998  47.828  -0.549  1.00  0.00    +0.000 C 
ATOM     74  F6  UNL A   1      18.806  48.113   0.484  1.00  0.00    +0.000 F 
ATOM     75  C55 UNL A   1      18.391  46.855  -1.463  1.00  0.00    +0.000 C 
ATOM     76  F7  UNL A   1      19.562  46.225  -1.306  1.00  0.00    +0.000 F 
ATOM     77  C56 UNL A   1      17.575  46.543  -2.541  1.00  0.00    +0.000 C 
ATOM     78  F8  UNL A   1      17.950  45.598  -3.415  1.00  0.00    +0.000 F 
ATOM     79  C57 UNL A   1      16.374  47.213  -2.717  1.00  0.00    +0.000 C 
ATOM     80  F9  UNL A   1      15.580  46.904  -3.751  1.00  0.00    +0.000 F 
ATOM     81  C58 UNL A   1      15.991  48.205  -1.818  1.00  0.00    +0.000 C 
ATOM     82  F10 UNL A   1      14.826  48.840  -2.015  1.00  0.00    +0.000 F 
ENDBRANCH   71   72
BRANCH   86   87
ATOM     97  F15 UNL A   1      14.292  47.600   6.150  1.00  0.00    +0.000 F 
ATOM     87  C62 UNL A   1      12.471  48.189   4.741  1.00  0.00    +0.000 C 
ATOM     88  C63 UNL A   1      11.156  47.916   4.341  1.00  0.00    +0.000 C 
ATOM     89  F11 UNL A   1      10.567  48.681   3.409  1.00  0.00    +0.000 F 
ATOM     90  C64 UNL A   1      10.435  46.870   4.913  1.00  0.00    +0.000 C 
ATOM     91  F12 UNL A   1       9.170  46.646   4.533  1.00  0.00    +0.000 F 
ATOM     92  C65 UNL A   1      11.022  46.066   5.878  1.00  0.00    +0.000 C 
ATOM     93  F13 UNL A   1      10.332  45.051   6.418  1.00  0.00    +0.000 F 
ATOM     94  C66 UNL A   1      12.324  46.316   6.286  1.00  0.00    +0.000 C 
ATOM     95  F14 UNL A   1      12.900  45.532   7.209  1.00  0.00    +0.000 F 
ATOM     96  C67 UNL A   1      13.036  47.377   5.734  1.00  0.00    +0.000 C 
ENDBRANCH   86   87
TORSDOF 23
ENDMDL
MODEL 6
REMARK VINA RESULT:      -8.2      3.918      9.615
ROOT
ATOM    142  H34 UNL A   1      17.530  50.960  -2.537  1.00  0.00    +0.000 H 
ATOM    143  H35 UNL A   1      17.735  53.558  -2.502  1.00  0.00    +0.000 H 
ATOM    144  H36 UNL A   1      16.284  52.318   1.173  1.00  0.00    +0.000 H 
ATOM    145  H37 UNL A   1      13.973  53.730   6.943  1.00  0.00    +0.000 H 
ATOM    146  H38 UNL A   1      14.038  51.192   7.013  1.00  0.00    +0.000 H 
ATOM    147  H39 UNL A   1      15.463  52.397   3.298  1.00  0.00    +0.000 H 
ATOM    148  H40 UNL A   1      15.655  57.419   3.477  1.00  0.00    +0.000 H 
ATOM    149  H41 UNL A   1      16.526  57.347   1.070  1.00  0.00    +0.000 H 
ATOM    150  H42 UNL A   1      16.068  47.305   1.101  1.00  0.00    +0.000 H 
ATOM    151  H43 UNL A   1      15.015  47.362   3.435  1.00  0.00    +0.000 H 
ATOM     50  C38 UNL A   1      14.873  49.978   4.576  1.00  0.00    +0.000 C 
ATOM     51  C39 UNL A   1      15.358  49.592   3.204  1.00  0.00    +0.000 C 
ATOM     52  N3  UNL A   1      15.801  50.358   2.237  1.00  0.00    +0.000 N 
ATOM     53  C40 UNL A   1      16.136  49.504   1.194  1.00  0.00    +0.000 C 
ATOM     54  C41 UNL A   1      16.608  49.817  -0.037  1.00  0.00    +0.000 C 
ATOM     66  C48 UNL A   1      16.840  51.158  -0.502  1.00  0.00    +0.000 C 
ATOM     67  C49 UNL A   1      17.300  51.574  -1.740  1.00  0.00    +0.000 C 
ATOM     68  C50 UNL A   1      17.396  52.969  -1.726  1.00  0.00    +0.000 C 
ATOM     69  C51 UNL A   1      16.959  53.425  -0.493  1.00  0.00    +0.000 C 
ATOM     70  N4  UNL A   1      16.625  52.304   0.250  1.00  0.00    +0.000 N 
ATOM     71  C52 UNL A   1      16.860  54.783  -0.023  1.00  0.00    +0.000 C 
ATOM     83  C59 UNL A   1      16.372  55.154   1.186  1.00  0.00    +0.000 C 
ATOM     84  N5  UNL A   1      15.893  54.354   2.213  1.00  0.00    +0.000 N 
ATOM     85  C60 UNL A   1      15.568  55.172   3.183  1.00  0.00    +0.000 C 
ATOM     86  C61 UNL A   1      14.998  54.857   4.537  1.00  0.00    +0.000 C 
ATOM     98  C68 UNL A   1      14.827  53.571   4.895  1.00  0.00    +0.000 C 
ATOM     99  C69 UNL A   1      14.303  53.117   6.181  1.00  0.00    +0.000 C 
ATOM    100  C70 UNL A   1      14.319  51.777   6.210  1.00  0.00    +0.000 C 
ATOM    101  C71 UNL A   1      14.797  51.276   4.921  1.00  0.00    +0.000 C 
ATOM    102  N6  UNL A   1      15.094  52.412   4.211  1.00  0.00    +0.000 N 
ATOM    103  C72 UNL A   1      15.807  56.590   2.880  1.00  0.00    +0.000 C 
ATOM    104  C73 UNL A   1      16.270  56.525   1.640  1.00  0.00    +0.000 C 
ATOM    105  C74 UNL A   1      15.873  48.156   1.651  1.00  0.00    +0.000 C 
ATOM    106  C75 UNL A   1      15.347  48.159   2.868  1.00  0.00    +0.000 C 
ENDROOT
BRANCH   50   49
ATOM    107  C76 UNL A   1      13.058  48.548   5.582  1.00  0.00    +0.000 C 
ATOM    108  C77 UNL A   1      12.612  47.694   6.595  1.00  0.00    +0.000 C 
ATOM    140  H32 UNL A   1      15.576  46.974   7.992  1.00  0.00    +0.000 H 
ATOM     46  C34 UNL A   1      13.526  47.192   7.524  1.00  0.00    +0.000 C 
ATOM     47  C35 UNL A   1      14.891  47.455   7.387  1.00  0.00    +0.000 C 
ATOM     48  C36 UNL A   1      15.320  48.367   6.431  1.00  0.00    +0.000 C 
ATOM    141  H33 UNL A   1      16.317  48.626   6.382  1.00  0.00    +0.000 H 
ATOM     49  C37 UNL A   1      14.406  48.940   5.530  1.00  0.00    +0.000 C 
ATOM    152  H44 UNL A   1      12.395  48.891   4.869  1.00  0.00    +0.000 H 
ATOM    153  H45 UNL A   1      11.615  47.436   6.655  1.00  0.00    +0.000 H 
BRANCH   46   44
ATOM     44  C33 UNL A   1      13.022  46.462   8.706  1.00  0.00    +0.000 C 
ATOM     45  O10 UNL A   1      13.535  46.637   9.805  1.00  0.00    +0.000 O 
BRANCH   44   43
ATOM     43  N2  UNL A   1      12.003  45.553   8.538  1.00  0.00    +0.000 N 
ATOM    139  H31 UNL A   1      12.277  44.609   8.478  1.00  0.00    +0.000 H 
BRANCH   43   42
ATOM    137  H29 UNL A   1      10.090  45.374   9.290  1.00  0.00    +0.000 H 
ATOM     42  C32 UNL A   1      10.573  45.804   8.438  1.00  0.00    +0.000 C 
ATOM    138  H30 UNL A   1      10.435  46.865   8.394  1.00  0.00    +0.000 H 
BRANCH   42   41
ATOM     41  C31 UNL A   1       9.957  45.212   7.179  1.00  0.00    +0.000 C 
ATOM    135  H27 UNL A   1      10.613  45.414   6.360  1.00  0.00    +0.000 H 
ATOM    136  H28 UNL A   1       9.828  44.166   7.369  1.00  0.00    +0.000 H 
BRANCH   41   40
ATOM    133  H25 UNL A   1       8.068  45.021   6.238  1.00  0.00    +0.000 H 
ATOM    134  H26 UNL A   1       8.090  45.967   7.758  1.00  0.00    +0.000 H 
ATOM     40  C30 UNL A   1       8.574  45.757   6.826  1.00  0.00    +0.000 C 
BRANCH   40   39
ATOM    131  H23 UNL A   1       7.557  47.387   5.923  1.00  0.00    +0.000 H 
ATOM    132  H24 UNL A   1       9.169  47.757   6.611  1.00  0.00    +0.000 H 
ATOM     39  C29 UNL A   1       8.573  47.073   6.042  1.00  0.00    +0.000 C 
BRANCH   39   38
ATOM    129  H21 UNL A   1      10.255  46.784   4.770  1.00  0.00    +0.000 H 
ATOM    130  H22 UNL A   1       8.688  46.259   4.102  1.00  0.00    +0.000 H 
ATOM     38  C28 UNL A   1       9.216  47.011   4.650  1.00  0.00    +0.000 C 
BRANCH   38   37
ATOM     37  C27 UNL A   1       9.097  48.306   3.848  1.00  0.00    +0.000 C 
ATOM    127  H19 UNL A   1       9.035  49.131   4.525  1.00  0.00    +0.000 H 
ATOM    128  H20 UNL A   1       9.959  48.396   3.220  1.00  0.00    +0.000 H 
BRANCH   37   36
ATOM     36  N1  UNL A   1       7.919  48.296   3.007  1.00  0.00    +0.000 N 
ATOM    126  H18 UNL A   1       7.557  47.442   2.682  1.00  0.00    +0.000 H 
BRANCH   36    2
ATOM      1  O1  UNL A   1       6.123  49.572   2.383  1.00  0.00    +0.000 O 
ATOM      2  C1  UNL A   1       7.310  49.465   2.666  1.00  0.00    +0.000 C 
BRANCH    2    3
ATOM      3  C2  UNL A   1       8.157  50.677   2.668  1.00  0.00    +0.000 C 
ATOM    109  H1  UNL A   1       8.254  51.141   3.584  1.00  0.00    +0.000 H 
BRANCH    3    4
ATOM      4  C3  UNL A   1       8.822  51.269   1.652  1.00  0.00    +0.000 C 
ATOM    110  H2  UNL A   1       8.444  51.201   0.694  1.00  0.00    +0.000 H 
BRANCH    4    5
ATOM      5  C4  UNL A   1      10.146  52.053   1.888  1.00  0.00    +0.000 C 
ATOM      6  C5  UNL A   1       9.717  53.348   2.524  1.00  0.00    +0.000 C 
ATOM      7  C6  UNL A   1       9.898  53.617   3.824  1.00  0.00    +0.000 C 
ATOM      9  C7  UNL A   1      10.651  52.674   4.715  1.00  0.00    +0.000 C 
ATOM     10  O3  UNL A   1      10.783  52.940   5.905  1.00  0.00    +0.000 O 
ATOM     11  C8  UNL A   1      11.278  51.479   4.100  1.00  0.00    +0.000 C 
ATOM     12  C9  UNL A   1      11.033  51.243   2.809  1.00  0.00    +0.000 C 
ATOM     13  C10 UNL A   1      11.689  50.203   1.977  1.00  0.00    +0.000 C 
ATOM     14  O4  UNL A   1      12.188  49.174   2.357  1.00  0.00    +0.000 O 
ATOM     15  C11 UNL A   1      11.677  50.755   0.594  1.00  0.00    +0.000 C 
ATOM     16  C12 UNL A   1      12.290  50.197  -0.453  1.00  0.00    +0.000 C 
ATOM     17  C13 UNL A   1      12.570  51.036  -1.626  1.00  0.00    +0.000 C 
ATOM     18  C14 UNL A   1      12.388  50.518  -2.918  1.00  0.00    +0.000 C 
ATOM     19  C15 UNL A   1      12.775  51.278  -4.020  1.00  0.00    +0.000 C 
ATOM     21  C16 UNL A   1      13.373  52.524  -3.848  1.00  0.00    +0.000 C 
ATOM     23  C17 UNL A   1      13.565  53.046  -2.581  1.00  0.00    +0.000 C 
ATOM     24  C18 UNL A   1      13.122  52.328  -1.470  1.00  0.00    +0.000 C 
ATOM     25  O7  UNL A   1      13.390  52.907  -0.258  1.00  0.00    +0.000 O 
ATOM     26  C19 UNL A   1      12.318  53.122   0.700  1.00  0.00    +0.000 C 
ATOM     35  C26 UNL A   1      11.085  52.150   0.628  1.00  0.00    +0.000 C 
ATOM    111  H3  UNL A   1       9.262  54.060   1.933  1.00  0.00    +0.000 H 
ATOM    113  H5  UNL A   1      11.883  50.852   4.652  1.00  0.00    +0.000 H 
ATOM    114  H6  UNL A   1      12.560  49.201  -0.439  1.00  0.00    +0.000 H 
ATOM    115  H7  UNL A   1      11.973  49.583  -3.050  1.00  0.00    +0.000 H 
ATOM    118  H10 UNL A   1      14.033  53.959  -2.459  1.00  0.00    +0.000 H 
ATOM    119  H11 UNL A   1      12.695  52.847   1.663  1.00  0.00    +0.000 H 
ATOM    125  H17 UNL A   1      10.505  52.514  -0.195  1.00  0.00    +0.000 H 
BRANCH    7    8
ATOM    112  H4  UNL A   1       9.290  55.542   3.840  1.00  0.00    +0.000 H 
ATOM      8  O2  UNL A   1       9.410  54.783   4.378  1.00  0.00    +0.000 O 
ENDBRANCH    7    8
BRANCH   19   20
ATOM    116  H8  UNL A   1      11.771  50.915  -5.721  1.00  0.00    +0.000 H 
ATOM     20  O5  UNL A   1      12.607  50.837  -5.303  1.00  0.00    +0.000 O 
ENDBRANCH   19   20
BRANCH   21   22
ATOM    117  H9  UNL A   1      14.396  53.947  -4.820  1.00  0.00    +0.000 H 
ATOM     22  O6  UNL A   1      13.784  53.246  -4.930  1.00  0.00    +0.000 O 
ENDBRANCH   21   22
BRANCH   26   27
ATOM     34  C25 UNL A   1      12.429  55.496   1.646  1.00  0.00    +0.000 C 
ATOM     28  C21 UNL A   1      11.159  55.106  -0.365  1.00  0.00    +0.000 C 
ATOM    120  H12 UNL A   1      10.713  54.452  -1.027  1.00  0.00    +0.000 H 
ATOM    121  H13 UNL A   1      10.421  56.841  -1.323  1.00  0.00    +0.000 H 
ATOM     27  C20 UNL A   1      11.961  54.601   0.674  1.00  0.00    +0.000 C 
ATOM    124  H16 UNL A   1      12.979  55.146   2.446  1.00  0.00    +0.000 H 
ATOM     29  C22 UNL A   1      10.954  56.479  -0.516  1.00  0.00    +0.000 C 
ATOM     30  C23 UNL A   1      11.474  57.355   0.429  1.00  0.00    +0.000 C 
ATOM     32  C24 UNL A   1      12.155  56.858   1.536  1.00  0.00    +0.000 C 
BRANCH   30   31
ATOM    122  H14 UNL A   1      10.504  59.107   0.518  1.00  0.00    +0.000 H 
ATOM     31  O8  UNL A   1      11.314  58.701   0.279  1.00  0.00    +0.000 O 
ENDBRANCH   30   31
BRANCH   32   33
ATOM     33  O9  UNL A   1      12.581  57.715   2.511  1.00  0.00    +0.000 O 
ATOM    123  H15 UNL A   1      13.495  57.884   2.618  1.00  0.00    +0.000 H 
ENDBRANCH   32   33
ENDBRANCH   26   27
ENDBRANCH    4    5
ENDBRANCH    3    4
ENDBRANCH    2    3
ENDBRANCH   36    2
ENDBRANCH   37   36
ENDBRANCH   38   37
ENDBRANCH   39   38
ENDBRANCH   40   39
ENDBRANCH   41   40
ENDBRANCH   42   41
ENDBRANCH   43   42
ENDBRANCH   44   43
ENDBRANCH   46   44
ENDBRANCH   50   49
BRANCH   54   55
ATOM     65  F5  UNL A   1      19.181  48.631  -0.267  1.00  0.00    +0.000 F 
ATOM     55  C42 UNL A   1      16.910  48.688  -0.978  1.00  0.00    +0.000 C 
ATOM     56  C43 UNL A   1      15.935  48.172  -1.842  1.00  0.00    +0.000 C 
ATOM     57  F1  UNL A   1      14.674  48.627  -1.787  1.00  0.00    +0.000 F 
ATOM     58  C44 UNL A   1      16.246  47.165  -2.754  1.00  0.00    +0.000 C 
ATOM     59  F2  UNL A   1      15.291  46.664  -3.549  1.00  0.00    +0.000 F 
ATOM     60  C45 UNL A   1      17.542  46.675  -2.835  1.00  0.00    +0.000 C 
ATOM     61  F3  UNL A   1      17.841  45.716  -3.722  1.00  0.00    +0.000 F 
ATOM     62  C46 UNL A   1      18.524  47.177  -1.996  1.00  0.00    +0.000 C 
ATOM     63  F4  UNL A   1      19.778  46.713  -2.081  1.00  0.00    +0.000 F 
ATOM     64  C47 UNL A   1      18.210  48.167  -1.067  1.00  0.00    +0.000 C 
ENDBRANCH   54   55
BRANCH   71   72
ATOM     72  C53 UNL A   1      17.322  55.873  -0.942  1.00  0.00    +0.000 C 
ATOM     73  C54 UNL A   1      18.665  56.277  -0.973  1.00  0.00    +0.000 C 
ATOM     74  F6  UNL A   1      19.552  55.735  -0.125  1.00  0.00    +0.000 F 
ATOM     75  C55 UNL A   1      19.094  57.262  -1.858  1.00  0.00    +0.000 C 
ATOM     76  F7  UNL A   1      20.374  57.658  -1.847  1.00  0.00    +0.000 F 
ATOM     77  C56 UNL A   1      18.197  57.840  -2.744  1.00  0.00    +0.000 C 
ATOM     78  F8  UNL A   1      18.614  58.781  -3.603  1.00  0.00    +0.000 F 
ATOM     79  C57 UNL A   1      16.867  57.447  -2.738  1.00  0.00    +0.000 C 
ATOM     80  F9  UNL A   1      16.002  57.996  -3.601  1.00  0.00    +0.000 F 
ATOM     81  C58 UNL A   1      16.430  56.480  -1.837  1.00  0.00    +0.000 C 
ATOM     82  F10 UNL A   1      15.137  56.123  -1.850  1.00  0.00    +0.000 F 
ENDBRANCH   71   72
BRANCH   86   87
ATOM     97  F15 UNL A   1      16.892  56.286   6.109  1.00  0.00    +0.000 F 
ATOM     87  C62 UNL A   1      14.625  55.938   5.483  1.00  0.00    +0.000 C 
ATOM     88  C63 UNL A   1      13.285  56.306   5.663  1.00  0.00    +0.000 C 
ATOM     89  F11 UNL A   1      12.325  55.710   4.939  1.00  0.00    +0.000 F 
ATOM     90  C64 UNL A   1      12.930  57.302   6.569  1.00  0.00    +0.000 C 
ATOM     91  F12 UNL A   1      11.645  57.656   6.702  1.00  0.00    +0.000 F 
ATOM     92  C65 UNL A   1      13.905  57.933   7.327  1.00  0.00    +0.000 C 
ATOM     93  F13 UNL A   1      13.561  58.882   8.209  1.00  0.00    +0.000 F 
ATOM     94  C66 UNL A   1      15.237  57.581   7.169  1.00  0.00    +0.000 C 
ATOM     95  F14 UNL A   1      16.181  58.178   7.911  1.00  0.00    +0.000 F 
ATOM     96  C67 UNL A   1      15.595  56.604   6.245  1.00  0.00    +0.000 C 
ENDBRANCH   86   87
TORSDOF 23
ENDMDL
MODEL 7
REMARK VINA RESULT:      -8.1      0.825      6.761
ROOT
ATOM    142  H34 UNL A   1      13.380  46.474   2.230  1.00  0.00    +0.000 H 
ATOM    143  H35 UNL A   1      15.127  46.888   0.340  1.00  0.00    +0.000 H 
ATOM    144  H36 UNL A   1      14.751  50.370   2.551  1.00  0.00    +0.000 H 
ATOM    145  H37 UNL A   1      16.196  56.514   3.438  1.00  0.00    +0.000 H 
ATOM    146  H38 UNL A   1      14.713  56.031   5.442  1.00  0.00    +0.000 H 
ATOM    147  H39 UNL A   1      15.034  52.528   3.227  1.00  0.00    +0.000 H 
ATOM    148  H40 UNL A   1      18.311  53.538  -0.450  1.00  0.00    +0.000 H 
ATOM    149  H41 UNL A   1      17.960  51.132  -1.254  1.00  0.00    +0.000 H 
ATOM    150  H42 UNL A   1      11.503  49.459   6.266  1.00  0.00    +0.000 H 
ATOM    151  H43 UNL A   1      11.690  51.914   6.971  1.00  0.00    +0.000 H 
ATOM     50  C38 UNL A   1      13.626  53.400   5.484  1.00  0.00    +0.000 C 
ATOM     51  C39 UNL A   1      13.207  51.967   5.286  1.00  0.00    +0.000 C 
ATOM     52  N3  UNL A   1      13.618  51.101   4.392  1.00  0.00    +0.000 N 
ATOM     53  C40 UNL A   1      12.933  49.922   4.657  1.00  0.00    +0.000 C 
ATOM     54  C41 UNL A   1      12.985  48.745   3.989  1.00  0.00    +0.000 C 
ATOM     66  C48 UNL A   1      13.793  48.508   2.822  1.00  0.00    +0.000 C 
ATOM     67  C49 UNL A   1      13.897  47.352   2.067  1.00  0.00    +0.000 C 
ATOM     68  C50 UNL A   1      14.824  47.579   1.044  1.00  0.00    +0.000 C 
ATOM     69  C51 UNL A   1      15.267  48.888   1.139  1.00  0.00    +0.000 C 
ATOM     70  N4  UNL A   1      14.629  49.445   2.236  1.00  0.00    +0.000 N 
ATOM     71  C52 UNL A   1      16.208  49.579   0.295  1.00  0.00    +0.000 C 
ATOM     83  C59 UNL A   1      16.554  50.883   0.422  1.00  0.00    +0.000 C 
ATOM     84  N5  UNL A   1      16.121  51.812   1.357  1.00  0.00    +0.000 N 
ATOM     85  C60 UNL A   1      16.763  52.920   1.087  1.00  0.00    +0.000 C 
ATOM     86  C61 UNL A   1      16.686  54.252   1.779  1.00  0.00    +0.000 C 
ATOM     98  C68 UNL A   1      15.916  54.381   2.874  1.00  0.00    +0.000 C 
ATOM     99  C69 UNL A   1      15.761  55.604   3.657  1.00  0.00    +0.000 C 
ATOM    100  C70 UNL A   1      14.962  55.354   4.704  1.00  0.00    +0.000 C 
ATOM    101  C71 UNL A   1      14.499  53.968   4.633  1.00  0.00    +0.000 C 
ATOM    102  N6  UNL A   1      15.133  53.462   3.526  1.00  0.00    +0.000 N 
ATOM    103  C72 UNL A   1      17.683  52.820  -0.054  1.00  0.00    +0.000 C 
ATOM    104  C73 UNL A   1      17.495  51.566  -0.441  1.00  0.00    +0.000 C 
ATOM    105  C74 UNL A   1      12.097  50.171   5.813  1.00  0.00    +0.000 C 
ATOM    106  C75 UNL A   1      12.194  51.432   6.210  1.00  0.00    +0.000 C 
ENDROOT
BRANCH   50   49
ATOM    107  C76 UNL A   1      11.752  54.790   6.436  1.00  0.00    +0.000 C 
ATOM    108  C77 UNL A   1      11.278  55.687   7.397  1.00  0.00    +0.000 C 
ATOM    140  H32 UNL A   1      13.768  55.401   9.626  1.00  0.00    +0.000 H 
ATOM     46  C34 UNL A   1      12.061  55.971   8.518  1.00  0.00    +0.000 C 
ATOM     47  C35 UNL A   1      13.261  55.290   8.734  1.00  0.00    +0.000 C 
ATOM     48  C36 UNL A   1      13.767  54.462   7.740  1.00  0.00    +0.000 C 
ATOM    141  H33 UNL A   1      14.692  54.022   7.861  1.00  0.00    +0.000 H 
ATOM     49  C37 UNL A   1      13.027  54.217   6.570  1.00  0.00    +0.000 C 
ATOM    152  H44 UNL A   1      11.162  54.546   5.624  1.00  0.00    +0.000 H 
ATOM    153  H45 UNL A   1      10.357  56.136   7.279  1.00  0.00    +0.000 H 
BRANCH   46   44
ATOM     44  C33 UNL A   1      11.653  57.067   9.420  1.00  0.00    +0.000 C 
ATOM     45  O10 UNL A   1      12.089  58.201   9.252  1.00  0.00    +0.000 O 
BRANCH   44   43
ATOM     43  N2  UNL A   1      10.818  56.782  10.476  1.00  0.00    +0.000 N 
ATOM    139  H31 UNL A   1      11.236  56.790  11.367  1.00  0.00    +0.000 H 
BRANCH   43   42
ATOM    137  H29 UNL A   1       8.907  57.024  11.217  1.00  0.00    +0.000 H 
ATOM     42  C32 UNL A   1       9.397  56.467  10.446  1.00  0.00    +0.000 C 
ATOM    138  H30 UNL A   1       9.031  56.725   9.474  1.00  0.00    +0.000 H 
BRANCH   42   41
ATOM     41  C31 UNL A   1       9.115  54.988  10.662  1.00  0.00    +0.000 C 
ATOM    135  H27 UNL A   1       9.850  54.427  10.124  1.00  0.00    +0.000 H 
ATOM    136  H28 UNL A   1       9.150  54.825  11.719  1.00  0.00    +0.000 H 
BRANCH   41   40
ATOM    133  H25 UNL A   1       7.033  54.749  10.978  1.00  0.00    +0.000 H 
ATOM    134  H26 UNL A   1       7.537  55.045   9.286  1.00  0.00    +0.000 H 
ATOM     40  C30 UNL A   1       7.734  54.526  10.201  1.00  0.00    +0.000 C 
BRANCH   40   39
ATOM    131  H23 UNL A   1       8.573  52.581  10.062  1.00  0.00    +0.000 H 
ATOM    132  H24 UNL A   1       6.836  52.654  10.497  1.00  0.00    +0.000 H 
ATOM     39  C29 UNL A   1       7.621  53.033   9.875  1.00  0.00    +0.000 C 
BRANCH   39   38
ATOM    129  H21 UNL A   1       6.660  53.531   8.043  1.00  0.00    +0.000 H 
ATOM    130  H22 UNL A   1       8.119  52.518   7.893  1.00  0.00    +0.000 H 
ATOM     38  C28 UNL A   1       7.214  52.703   8.433  1.00  0.00    +0.000 C 
BRANCH   38   37
ATOM     37  C27 UNL A   1       6.357  51.445   8.298  1.00  0.00    +0.000 C 
ATOM    127  H19 UNL A   1       5.372  51.654   8.660  1.00  0.00    +0.000 H 
ATOM    128  H20 UNL A   1       6.328  51.164   7.266  1.00  0.00    +0.000 H 
BRANCH   37   36
ATOM     36  N1  UNL A   1       6.915  50.345   9.055  1.00  0.00    +0.000 N 
ATOM    126  H18 UNL A   1       7.090  50.452  10.017  1.00  0.00    +0.000 H 
BRANCH   36    2
ATOM      1  O1  UNL A   1       6.351  48.372   8.039  1.00  0.00    +0.000 O 
ATOM      2  C1  UNL A   1       7.196  49.163   8.442  1.00  0.00    +0.000 C 
BRANCH    2    3
ATOM      3  C2  UNL A   1       8.626  48.847   8.238  1.00  0.00    +0.000 C 
ATOM    109  H1  UNL A   1       8.814  47.924   7.817  1.00  0.00    +0.000 H 
BRANCH    3    4
ATOM      4  C3  UNL A   1       9.723  49.583   8.520  1.00  0.00    +0.000 C 
ATOM    110  H2  UNL A   1      10.021  50.316   7.859  1.00  0.00    +0.000 H 
BRANCH    4    5
ATOM      5  C4  UNL A   1      10.551  49.353   9.818  1.00  0.00    +0.000 C 
ATOM      6  C5  UNL A   1       9.927  50.268  10.838  1.00  0.00    +0.000 C 
ATOM      7  C6  UNL A   1       9.153  49.826  11.837  1.00  0.00    +0.000 C 
ATOM      9  C7  UNL A   1       8.947  48.358  12.070  1.00  0.00    +0.000 C 
ATOM     10  O3  UNL A   1       8.217  47.986  12.982  1.00  0.00    +0.000 O 
ATOM     11  C8  UNL A   1       9.703  47.402  11.225  1.00  0.00    +0.000 C 
ATOM     12  C9  UNL A   1      10.430  47.900  10.221  1.00  0.00    +0.000 C 
ATOM     13  C10 UNL A   1      11.376  47.132   9.372  1.00  0.00    +0.000 C 
ATOM     14  O4  UNL A   1      11.350  45.951   9.136  1.00  0.00    +0.000 O 
ATOM     15  C11 UNL A   1      12.409  48.123   8.958  1.00  0.00    +0.000 C 
ATOM     16  C12 UNL A   1      13.526  47.823   8.290  1.00  0.00    +0.000 C 
ATOM     17  C13 UNL A   1      14.639  48.781   8.328  1.00  0.00    +0.000 C 
ATOM     18  C14 UNL A   1      15.383  49.037   7.166  1.00  0.00    +0.000 C 
ATOM     19  C15 UNL A   1      16.512  49.851   7.242  1.00  0.00    +0.000 C 
ATOM     21  C16 UNL A   1      16.927  50.375   8.463  1.00  0.00    +0.000 C 
ATOM     23  C17 UNL A   1      16.209  50.126   9.620  1.00  0.00    +0.000 C 
ATOM     24  C18 UNL A   1      15.038  49.370   9.549  1.00  0.00    +0.000 C 
ATOM     25  O7  UNL A   1      14.417  49.146  10.749  1.00  0.00    +0.000 O 
ATOM     26  C19 UNL A   1      13.012  49.476  10.915  1.00  0.00    +0.000 C 
ATOM     35  C26 UNL A   1      12.111  49.451   9.627  1.00  0.00    +0.000 C 
ATOM    111  H3  UNL A   1      10.103  51.282  10.763  1.00  0.00    +0.000 H 
ATOM    113  H5  UNL A   1       9.667  46.388  11.406  1.00  0.00    +0.000 H 
ATOM    114  H6  UNL A   1      13.605  46.941   7.760  1.00  0.00    +0.000 H 
ATOM    115  H7  UNL A   1      15.096  48.627   6.263  1.00  0.00    +0.000 H 
ATOM    118  H10 UNL A   1      16.536  50.496  10.526  1.00  0.00    +0.000 H 
ATOM    119  H11 UNL A   1      12.560  48.670  11.455  1.00  0.00    +0.000 H 
ATOM    125  H17 UNL A   1      12.331  50.371   9.129  1.00  0.00    +0.000 H 
BRANCH    7    8
ATOM    112  H4  UNL A   1       8.595  51.634  12.540  1.00  0.00    +0.000 H 
ATOM      8  O2  UNL A   1       8.534  50.712  12.696  1.00  0.00    +0.000 O 
ENDBRANCH    7    8
BRANCH   19   20
ATOM    116  H8  UNL A   1      18.124  50.518   6.248  1.00  0.00    +0.000 H 
ATOM     20  O5  UNL A   1      17.267  50.152   6.143  1.00  0.00    +0.000 O 
ENDBRANCH   19   20
BRANCH   21   22
ATOM    117  H9  UNL A   1      18.655  51.159   7.817  1.00  0.00    +0.000 H 
ATOM     22  O6  UNL A   1      18.056  51.138   8.537  1.00  0.00    +0.000 O 
ENDBRANCH   21   22
BRANCH   26   27
ATOM     34  C25 UNL A   1      12.694  50.763  13.102  1.00  0.00    +0.000 C 
ATOM     28  C21 UNL A   1      13.115  52.001  11.078  1.00  0.00    +0.000 C 
ATOM    120  H12 UNL A   1      13.178  52.035  10.048  1.00  0.00    +0.000 H 
ATOM    121  H13 UNL A   1      13.423  54.077  11.331  1.00  0.00    +0.000 H 
ATOM     27  C20 UNL A   1      12.928  50.764  11.721  1.00  0.00    +0.000 C 
ATOM    124  H16 UNL A   1      12.506  49.875  13.592  1.00  0.00    +0.000 H 
ATOM     29  C22 UNL A   1      13.216  53.186  11.810  1.00  0.00    +0.000 C 
ATOM     30  C23 UNL A   1      13.036  53.156  13.187  1.00  0.00    +0.000 C 
ATOM     32  C24 UNL A   1      12.715  51.959  13.819  1.00  0.00    +0.000 C 
BRANCH   30   31
ATOM    122  H14 UNL A   1      12.608  55.032  13.751  1.00  0.00    +0.000 H 
ATOM     31  O8  UNL A   1      13.166  54.298  13.922  1.00  0.00    +0.000 O 
ENDBRANCH   30   31
BRANCH   32   33
ATOM     33  O9  UNL A   1      12.444  51.950  15.158  1.00  0.00    +0.000 O 
ATOM    123  H15 UNL A   1      13.051  51.560  15.755  1.00  0.00    +0.000 H 
ENDBRANCH   32   33
ENDBRANCH   26   27
ENDBRANCH    4    5
ENDBRANCH    3    4
ENDBRANCH    2    3
ENDBRANCH   36    2
ENDBRANCH   37   36
ENDBRANCH   38   37
ENDBRANCH   39   38
ENDBRANCH   40   39
ENDBRANCH   41   40
ENDBRANCH   42   41
ENDBRANCH   43   42
ENDBRANCH   44   43
ENDBRANCH   46   44
ENDBRANCH   50   49
BRANCH   54   55
ATOM     65  F5  UNL A   1      10.176  48.579   3.584  1.00  0.00    +0.000 F 
ATOM     55  C42 UNL A   1      12.148  47.611   4.502  1.00  0.00    +0.000 C 
ATOM     56  C43 UNL A   1      12.705  46.570   5.259  1.00  0.00    +0.000 C 
ATOM     57  F1  UNL A   1      14.028  46.525   5.473  1.00  0.00    +0.000 F 
ATOM     58  C44 UNL A   1      11.905  45.555   5.780  1.00  0.00    +0.000 C 
ATOM     59  F2  UNL A   1      12.463  44.554   6.473  1.00  0.00    +0.000 F 
ATOM     60  C45 UNL A   1      10.533  45.576   5.575  1.00  0.00    +0.000 C 
ATOM     61  F3  UNL A   1       9.764  44.606   6.090  1.00  0.00    +0.000 F 
ATOM     62  C46 UNL A   1       9.959  46.600   4.838  1.00  0.00    +0.000 C 
ATOM     63  F4  UNL A   1       8.633  46.627   4.649  1.00  0.00    +0.000 F 
ATOM     64  C47 UNL A   1      10.760  47.603   4.296  1.00  0.00    +0.000 C 
ENDBRANCH   54   55
BRANCH   71   72
ATOM     72  C53 UNL A   1      16.849  48.803  -0.815  1.00  0.00    +0.000 C 
ATOM     73  C54 UNL A   1      18.045  48.099  -0.614  1.00  0.00    +0.000 C 
ATOM     74  F6  UNL A   1      18.676  48.166   0.569  1.00  0.00    +0.000 F 
ATOM     75  C55 UNL A   1      18.613  47.347  -1.638  1.00  0.00    +0.000 C 
ATOM     76  F7  UNL A   1      19.774  46.711  -1.436  1.00  0.00    +0.000 F 
ATOM     77  C56 UNL A   1      17.982  47.262  -2.871  1.00  0.00    +0.000 C 
ATOM     78  F8  UNL A   1      18.524  46.529  -3.853  1.00  0.00    +0.000 F 
ATOM     79  C57 UNL A   1      16.792  47.941  -3.087  1.00  0.00    +0.000 C 
ATOM     80  F9  UNL A   1      16.176  47.850  -4.274  1.00  0.00    +0.000 F 
ATOM     81  C58 UNL A   1      16.235  48.714  -2.073  1.00  0.00    +0.000 C 
ATOM     82  F10 UNL A   1      15.086  49.363  -2.311  1.00  0.00    +0.000 F 
ENDBRANCH   71   72
BRANCH   86   87
ATOM     97  F15 UNL A   1      19.349  54.853   2.585  1.00  0.00    +0.000 F 
ATOM     87  C62 UNL A   1      17.448  55.423   1.277  1.00  0.00    +0.000 C 
ATOM     88  C63 UNL A   1      16.872  56.319   0.368  1.00  0.00    +0.000 C 
ATOM     89  F11 UNL A   1      15.632  56.099  -0.095  1.00  0.00    +0.000 F 
ATOM     90  C64 UNL A   1      17.575  57.433  -0.086  1.00  0.00    +0.000 C 
ATOM     91  F12 UNL A   1      17.012  58.260  -0.977  1.00  0.00    +0.000 F 
ATOM     92  C65 UNL A   1      18.858  57.682   0.377  1.00  0.00    +0.000 C 
ATOM     93  F13 UNL A   1      19.529  58.761  -0.049  1.00  0.00    +0.000 F 
ATOM     94  C66 UNL A   1      19.447  56.810   1.281  1.00  0.00    +0.000 C 
ATOM     95  F14 UNL A   1      20.682  57.054   1.742  1.00  0.00    +0.000 F 
ATOM     96  C67 UNL A   1      18.755  55.683   1.714  1.00  0.00    +0.000 C 
ENDBRANCH   86   87
TORSDOF 23
ENDMDL
MODEL 8
REMARK VINA RESULT:      -8.1      2.302      7.911
ROOT
ATOM    142  H34 UNL A   1      15.228  47.552   4.032  1.00  0.00    +0.000 H 
ATOM    143  H35 UNL A   1      16.113  47.258   1.598  1.00  0.00    +0.000 H 
ATOM    144  H36 UNL A   1      15.910  51.309   2.428  1.00  0.00    +0.000 H 
ATOM    145  H37 UNL A   1      16.455  57.361   0.501  1.00  0.00    +0.000 H 
ATOM    146  H38 UNL A   1      15.865  57.645   2.954  1.00  0.00    +0.000 H 
ATOM    147  H39 UNL A   1      16.020  53.569   2.150  1.00  0.00    +0.000 H 
ATOM    148  H40 UNL A   1      17.593  53.180  -2.610  1.00  0.00    +0.000 H 
ATOM    149  H41 UNL A   1      17.421  50.641  -2.329  1.00  0.00    +0.000 H 
ATOM    150  H42 UNL A   1      14.359  51.806   7.175  1.00  0.00    +0.000 H 
ATOM    151  H43 UNL A   1      14.339  54.346   6.855  1.00  0.00    +0.000 H 
ATOM     50  C38 UNL A   1      15.346  55.202   4.321  1.00  0.00    +0.000 C 
ATOM     51  C39 UNL A   1      15.146  53.791   4.810  1.00  0.00    +0.000 C 
ATOM     52  N3  UNL A   1      15.370  52.661   4.186  1.00  0.00    +0.000 N 
ATOM     53  C40 UNL A   1      15.040  51.655   5.086  1.00  0.00    +0.000 C 
ATOM     54  C41 UNL A   1      15.067  50.313   4.903  1.00  0.00    +0.000 C 
ATOM     66  C48 UNL A   1      15.451  49.668   3.675  1.00  0.00    +0.000 C 
ATOM     67  C49 UNL A   1      15.493  48.314   3.389  1.00  0.00    +0.000 C 
ATOM     68  C50 UNL A   1      15.954  48.157   2.078  1.00  0.00    +0.000 C 
ATOM     69  C51 UNL A   1      16.162  49.414   1.534  1.00  0.00    +0.000 C 
ATOM     70  N4  UNL A   1      15.853  50.332   2.526  1.00  0.00    +0.000 N 
ATOM     71  C52 UNL A   1      16.615  49.754   0.210  1.00  0.00    +0.000 C 
ATOM     83  C59 UNL A   1      16.746  51.016  -0.267  1.00  0.00    +0.000 C 
ATOM     84  N5  UNL A   1      16.504  52.220   0.379  1.00  0.00    +0.000 N 
ATOM     85  C60 UNL A   1      16.806  53.157  -0.484  1.00  0.00    +0.000 C 
ATOM     86  C61 UNL A   1      16.737  54.649  -0.324  1.00  0.00    +0.000 C 
ATOM     98  C68 UNL A   1      16.382  55.168   0.866  1.00  0.00    +0.000 C 
ATOM     99  C69 UNL A   1      16.291  56.593   1.171  1.00  0.00    +0.000 C 
ATOM    100  C70 UNL A   1      15.961  56.743   2.462  1.00  0.00    +0.000 C 
ATOM    101  C71 UNL A   1      15.756  55.423   3.059  1.00  0.00    +0.000 C 
ATOM    102  N6  UNL A   1      16.048  54.548   2.043  1.00  0.00    +0.000 N 
ATOM    103  C72 UNL A   1      17.278  52.652  -1.781  1.00  0.00    +0.000 C 
ATOM    104  C73 UNL A   1      17.195  51.341  -1.604  1.00  0.00    +0.000 C 
ATOM    105  C74 UNL A   1      14.624  52.305   6.311  1.00  0.00    +0.000 C 
ATOM    106  C75 UNL A   1      14.626  53.624   6.176  1.00  0.00    +0.000 C 
ENDROOT
BRANCH   50   49
ATOM    107  C76 UNL A   1      15.806  56.661   6.324  1.00  0.00    +0.000 C 
ATOM    108  C77 UNL A   1      15.391  57.646   7.224  1.00  0.00    +0.000 C 
ATOM    140  H32 UNL A   1      12.733  58.793   5.529  1.00  0.00    +0.000 H 
ATOM     46  C34 UNL A   1      14.218  58.361   6.969  1.00  0.00    +0.000 C 
ATOM     47  C35 UNL A   1      13.518  58.170   5.776  1.00  0.00    +0.000 C 
ATOM     48  C36 UNL A   1      13.886  57.136   4.924  1.00  0.00    +0.000 C 
ATOM    141  H33 UNL A   1      13.321  56.939   4.084  1.00  0.00    +0.000 H 
ATOM     49  C37 UNL A   1      15.023  56.356   5.198  1.00  0.00    +0.000 C 
ATOM    152  H44 UNL A   1      16.692  56.156   6.486  1.00  0.00    +0.000 H 
ATOM    153  H45 UNL A   1      15.947  57.844   8.070  1.00  0.00    +0.000 H 
BRANCH   46   44
ATOM     44  C33 UNL A   1      13.677  59.250   8.017  1.00  0.00    +0.000 C 
ATOM     45  O10 UNL A   1      14.396  60.088   8.549  1.00  0.00    +0.000 O 
BRANCH   44   43
ATOM     43  N2  UNL A   1      12.370  59.086   8.416  1.00  0.00    +0.000 N 
ATOM    139  H31 UNL A   1      11.753  59.813   8.172  1.00  0.00    +0.000 H 
BRANCH   43   42
ATOM    137  H29 UNL A   1      12.519  57.580   9.818  1.00  0.00    +0.000 H 
ATOM     42  C32 UNL A   1      11.781  57.978   9.154  1.00  0.00    +0.000 C 
ATOM    138  H30 UNL A   1      10.933  58.359   9.683  1.00  0.00    +0.000 H 
BRANCH   42   41
ATOM     41  C31 UNL A   1      11.290  56.860   8.247  1.00  0.00    +0.000 C 
ATOM    135  H27 UNL A   1      10.267  56.662   8.487  1.00  0.00    +0.000 H 
ATOM    136  H28 UNL A   1      11.430  57.203   7.242  1.00  0.00    +0.000 H 
BRANCH   41   40
ATOM    133  H25 UNL A   1      11.405  54.747   8.122  1.00  0.00    +0.000 H 
ATOM    134  H26 UNL A   1      12.900  55.637   7.698  1.00  0.00    +0.000 H 
ATOM     40  C30 UNL A   1      12.068  55.551   8.367  1.00  0.00    +0.000 C 
BRANCH   40   39
ATOM    131  H23 UNL A   1      12.807  56.208  10.245  1.00  0.00    +0.000 H 
ATOM    132  H24 UNL A   1      11.966  54.626  10.246  1.00  0.00    +0.000 H 
ATOM     39  C29 UNL A   1      12.663  55.270   9.750  1.00  0.00    +0.000 C 
BRANCH   39   38
ATOM    129  H21 UNL A   1      13.988  53.806   8.957  1.00  0.00    +0.000 H 
ATOM    130  H22 UNL A   1      14.767  55.260   9.630  1.00  0.00    +0.000 H 
ATOM     38  C28 UNL A   1      14.002  54.522   9.752  1.00  0.00    +0.000 C 
BRANCH   38   37
ATOM     37  C27 UNL A   1      14.306  53.786  11.056  1.00  0.00    +0.000 C 
ATOM    127  H19 UNL A   1      14.881  54.425  11.692  1.00  0.00    +0.000 H 
ATOM    128  H20 UNL A   1      13.378  53.525  11.521  1.00  0.00    +0.000 H 
BRANCH   37   36
ATOM     36  N1  UNL A   1      15.052  52.570  10.811  1.00  0.00    +0.000 N 
ATOM    126  H18 UNL A   1      15.133  52.222   9.894  1.00  0.00    +0.000 H 
BRANCH   36    2
ATOM      1  O1  UNL A   1      16.654  51.224  11.741  1.00  0.00    +0.000 O 
ATOM      2  C1  UNL A   1      15.641  51.907  11.843  1.00  0.00    +0.000 C 
BRANCH    2    3
ATOM      3  C2  UNL A   1      15.011  52.057  13.172  1.00  0.00    +0.000 C 
ATOM    109  H1  UNL A   1      15.108  52.992  13.599  1.00  0.00    +0.000 H 
BRANCH    3    4
ATOM      4  C3  UNL A   1      14.327  51.157  13.912  1.00  0.00    +0.000 C 
ATOM    110  H2  UNL A   1      14.803  50.684  14.695  1.00  0.00    +0.000 H 
BRANCH    4    5
ATOM      5  C4  UNL A   1      12.839  50.815  13.614  1.00  0.00    +0.000 C 
ATOM      6  C5  UNL A   1      12.895  49.734  12.568  1.00  0.00    +0.000 C 
ATOM      7  C6  UNL A   1      12.629  48.448  12.833  1.00  0.00    +0.000 C 
ATOM      9  C7  UNL A   1      12.142  48.018  14.186  1.00  0.00    +0.000 C 
ATOM     10  O3  UNL A   1      11.926  46.831  14.402  1.00  0.00    +0.000 O 
ATOM     11  C8  UNL A   1      11.868  49.067  15.197  1.00  0.00    +0.000 C 
ATOM     12  C9  UNL A   1      12.187  50.327  14.889  1.00  0.00    +0.000 C 
ATOM     13  C10 UNL A   1      11.846  51.529  15.692  1.00  0.00    +0.000 C 
ATOM     14  O4  UNL A   1      11.635  51.577  16.877  1.00  0.00    +0.000 O 
ATOM     15  C11 UNL A   1      11.731  52.632  14.698  1.00  0.00    +0.000 C 
ATOM     16  C12 UNL A   1      11.306  53.867  14.978  1.00  0.00    +0.000 C 
ATOM     17  C13 UNL A   1      10.830  54.708  13.872  1.00  0.00    +0.000 C 
ATOM     18  C14 UNL A   1      11.163  56.071  13.834  1.00  0.00    +0.000 C 
ATOM     19  C15 UNL A   1      10.603  56.884  12.850  1.00  0.00    +0.000 C 
ATOM     21  C16 UNL A   1       9.691  56.366  11.935  1.00  0.00    +0.000 C 
ATOM     23  C17 UNL A   1       9.347  55.026  11.963  1.00  0.00    +0.000 C 
ATOM     24  C18 UNL A   1       9.949  54.183  12.898  1.00  0.00    +0.000 C 
ATOM     25  O7  UNL A   1       9.518  52.884  12.873  1.00  0.00    +0.000 O 
ATOM     26  C19 UNL A   1      10.478  51.799  12.758  1.00  0.00    +0.000 C 
ATOM     35  C26 UNL A   1      11.927  52.062  13.307  1.00  0.00    +0.000 C 
ATOM    111  H3  UNL A   1      13.152  49.995  11.603  1.00  0.00    +0.000 H 
ATOM    113  H5  UNL A   1      11.445  48.831  16.107  1.00  0.00    +0.000 H 
ATOM    114  H6  UNL A   1      11.312  54.221  15.947  1.00  0.00    +0.000 H 
ATOM    115  H7  UNL A   1      11.815  56.466  14.528  1.00  0.00    +0.000 H 
ATOM    118  H10 UNL A   1       8.650  54.653  11.299  1.00  0.00    +0.000 H 
ATOM    119  H11 UNL A   1      10.173  51.034  13.442  1.00  0.00    +0.000 H 
ATOM    125  H17 UNL A   1      12.401  52.643  12.543  1.00  0.00    +0.000 H 
BRANCH    7    8
ATOM    112  H4  UNL A   1      12.396  46.634  11.977  1.00  0.00    +0.000 H 
ATOM      8  O2  UNL A   1      12.779  47.482  11.859  1.00  0.00    +0.000 O 
ENDBRANCH    7    8
BRANCH   19   20
ATOM    116  H8  UNL A   1      10.551  58.723  12.045  1.00  0.00    +0.000 H 
ATOM     20  O5  UNL A   1      10.903  58.215  12.750  1.00  0.00    +0.000 O 
ENDBRANCH   19   20
BRANCH   21   22
ATOM    117  H9  UNL A   1       9.586  57.392  10.217  1.00  0.00    +0.000 H 
ATOM     22  O6  UNL A   1       9.118  57.177  10.999  1.00  0.00    +0.000 O 
ENDBRANCH   21   22
BRANCH   26   27
ATOM     34  C25 UNL A   1       9.643  50.178  10.965  1.00  0.00    +0.000 C 
ATOM     28  C21 UNL A   1      11.160  51.938  10.323  1.00  0.00    +0.000 C 
ATOM    120  H12 UNL A   1      11.826  52.681  10.584  1.00  0.00    +0.000 H 
ATOM    121  H13 UNL A   1      11.494  52.134   8.245  1.00  0.00    +0.000 H 
ATOM     27  C20 UNL A   1      10.426  51.282  11.328  1.00  0.00    +0.000 C 
ATOM    124  H16 UNL A   1       9.132  49.648  11.689  1.00  0.00    +0.000 H 
ATOM     29  C22 UNL A   1      11.002  51.598   8.978  1.00  0.00    +0.000 C 
ATOM     30  C23 UNL A   1      10.178  50.534   8.634  1.00  0.00    +0.000 C 
ATOM     32  C24 UNL A   1       9.552  49.791   9.629  1.00  0.00    +0.000 C 
BRANCH   30   31
ATOM    122  H14 UNL A   1       9.137  50.308   6.935  1.00  0.00    +0.000 H 
ATOM     31  O8  UNL A   1       9.985  50.212   7.322  1.00  0.00    +0.000 O 
ENDBRANCH   30   31
BRANCH   32   33
ATOM     33  O9  UNL A   1       8.820  48.688   9.293  1.00  0.00    +0.000 O 
ATOM    123  H15 UNL A   1       7.933  48.784   9.007  1.00  0.00    +0.000 H 
ENDBRANCH   32   33
ENDBRANCH   26   27
ENDBRANCH    4    5
ENDBRANCH    3    4
ENDBRANCH    2    3
ENDBRANCH   36    2
ENDBRANCH   37   36
ENDBRANCH   38   37
ENDBRANCH   39   38
ENDBRANCH   40   39
ENDBRANCH   41   40
ENDBRANCH   42   41
ENDBRANCH   43   42
ENDBRANCH   44   43
ENDBRANCH   46   44
ENDBRANCH   50   49
BRANCH   54   55
ATOM     65  F5  UNL A   1      16.931  49.316   6.804  1.00  0.00    +0.000 F 
ATOM     55  C42 UNL A   1      14.674  49.440   6.057  1.00  0.00    +0.000 C 
ATOM     56  C43 UNL A   1      13.348  49.025   6.245  1.00  0.00    +0.000 C 
ATOM     57  F1  UNL A   1      12.379  49.472   5.434  1.00  0.00    +0.000 F 
ATOM     58  C44 UNL A   1      13.008  48.165   7.288  1.00  0.00    +0.000 C 
ATOM     59  F2  UNL A   1      11.730  47.806   7.468  1.00  0.00    +0.000 F 
ATOM     60  C45 UNL A   1      13.989  47.685   8.143  1.00  0.00    +0.000 C 
ATOM     61  F3  UNL A   1      13.661  46.847   9.137  1.00  0.00    +0.000 F 
ATOM     62  C46 UNL A   1      15.308  48.075   7.970  1.00  0.00    +0.000 C 
ATOM     63  F4  UNL A   1      16.258  47.604   8.789  1.00  0.00    +0.000 F 
ATOM     64  C47 UNL A   1      15.647  48.954   6.944  1.00  0.00    +0.000 C 
ENDBRANCH   54   55
BRANCH   71   72
ATOM     72  C53 UNL A   1      16.962  48.629  -0.718  1.00  0.00    +0.000 C 
ATOM     73  C54 UNL A   1      16.029  48.134  -1.640  1.00  0.00    +0.000 C 
ATOM     74  F6  UNL A   1      14.778  48.618  -1.661  1.00  0.00    +0.000 F 
ATOM     75  C55 UNL A   1      16.371  47.116  -2.526  1.00  0.00    +0.000 C 
ATOM     76  F7  UNL A   1      15.455  46.633  -3.375  1.00  0.00    +0.000 F 
ATOM     77  C56 UNL A   1      17.658  46.596  -2.525  1.00  0.00    +0.000 C 
ATOM     78  F8  UNL A   1      17.989  45.623  -3.386  1.00  0.00    +0.000 F 
ATOM     79  C57 UNL A   1      18.599  47.080  -1.629  1.00  0.00    +0.000 C 
ATOM     80  F9  UNL A   1      19.844  46.586  -1.634  1.00  0.00    +0.000 F 
ATOM     81  C58 UNL A   1      18.252  48.080  -0.725  1.00  0.00    +0.000 C 
ATOM     82  F10 UNL A   1      19.181  48.526   0.134  1.00  0.00    +0.000 F 
ENDBRANCH   71   72
BRANCH   86   87
ATOM     97  F15 UNL A   1      14.802  55.563  -2.201  1.00  0.00    +0.000 F 
ATOM     87  C62 UNL A   1      17.059  55.558  -1.453  1.00  0.00    +0.000 C 
ATOM     88  C63 UNL A   1      18.368  56.010  -1.662  1.00  0.00    +0.000 C 
ATOM     89  F11 UNL A   1      19.341  55.659  -0.807  1.00  0.00    +0.000 F 
ATOM     90  C64 UNL A   1      18.677  56.842  -2.735  1.00  0.00    +0.000 C 
ATOM     91  F12 UNL A   1      19.932  57.285  -2.896  1.00  0.00    +0.000 F 
ATOM     92  C65 UNL A   1      17.688  57.220  -3.630  1.00  0.00    +0.000 C 
ATOM     93  F13 UNL A   1      17.990  58.010  -4.671  1.00  0.00    +0.000 F 
ATOM     94  C66 UNL A   1      16.386  56.781  -3.446  1.00  0.00    +0.000 C 
ATOM     95  F14 UNL A   1      15.430  57.132  -4.318  1.00  0.00    +0.000 F 
ATOM     96  C67 UNL A   1      16.071  55.970  -2.359  1.00  0.00    +0.000 C 
ENDBRANCH   86   87
TORSDOF 23
ENDMDL
MODEL 9
REMARK VINA RESULT:      -8.1     42.695     46.606
ROOT
ATOM    142  H34 UNL A   1      26.103  33.296  44.458  1.00  0.00    +0.000 H 
ATOM    143  H35 UNL A   1      23.570  32.692  44.349  1.00  0.00    +0.000 H 
ATOM    144  H36 UNL A   1      24.073  35.700  47.150  1.00  0.00    +0.000 H 
ATOM    145  H37 UNL A   1      21.639  39.490  51.661  1.00  0.00    +0.000 H 
ATOM    146  H38 UNL A   1      24.052  40.273  51.567  1.00  0.00    +0.000 H 
ATOM    147  H39 UNL A   1      23.596  37.229  48.773  1.00  0.00    +0.000 H 
ATOM    148  H40 UNL A   1      18.701  36.082  48.797  1.00  0.00    +0.000 H 
ATOM    149  H41 UNL A   1      19.232  34.323  47.013  1.00  0.00    +0.000 H 
ATOM    150  H42 UNL A   1      28.938  36.931  47.193  1.00  0.00    +0.000 H 
ATOM    151  H43 UNL A   1      28.464  38.558  49.111  1.00  0.00    +0.000 H 
ATOM     50  C38 UNL A   1      25.694  38.788  49.775  1.00  0.00    +0.000 C 
ATOM     51  C39 UNL A   1      26.330  37.876  48.760  1.00  0.00    +0.000 C 
ATOM     52  N3  UNL A   1      25.766  36.988  47.979  1.00  0.00    +0.000 N 
ATOM     53  C40 UNL A   1      26.793  36.435  47.223  1.00  0.00    +0.000 C 
ATOM     54  C41 UNL A   1      26.725  35.450  46.296  1.00  0.00    +0.000 C 
ATOM     66  C48 UNL A   1      25.516  34.763  45.927  1.00  0.00    +0.000 C 
ATOM     67  C49 UNL A   1      25.353  33.738  45.010  1.00  0.00    +0.000 C 
ATOM     68  C50 UNL A   1      23.995  33.404  44.963  1.00  0.00    +0.000 C 
ATOM     69  C51 UNL A   1      23.319  34.194  45.878  1.00  0.00    +0.000 C 
ATOM     70  N4  UNL A   1      24.263  35.025  46.460  1.00  0.00    +0.000 N 
ATOM     71  C52 UNL A   1      21.914  34.196  46.196  1.00  0.00    +0.000 C 
ATOM     83  C59 UNL A   1      21.333  34.967  47.146  1.00  0.00    +0.000 C 
ATOM     84  N5  UNL A   1      21.918  35.905  47.985  1.00  0.00    +0.000 N 
ATOM     85  C60 UNL A   1      20.943  36.406  48.699  1.00  0.00    +0.000 C 
ATOM     86  C61 UNL A   1      20.997  37.462  49.767  1.00  0.00    +0.000 C 
ATOM     98  C68 UNL A   1      22.169  38.064  50.038  1.00  0.00    +0.000 C 
ATOM     99  C69 UNL A   1      22.367  39.116  51.032  1.00  0.00    +0.000 C 
ATOM    100  C70 UNL A   1      23.646  39.516  50.996  1.00  0.00    +0.000 C 
ATOM    101  C71 UNL A   1      24.373  38.706  50.018  1.00  0.00    +0.000 C 
ATOM    102  N6  UNL A   1      23.412  37.885  49.485  1.00  0.00    +0.000 N 
ATOM    103  C72 UNL A   1      19.620  35.844  48.393  1.00  0.00    +0.000 C 
ATOM    104  C73 UNL A   1      19.919  34.951  47.459  1.00  0.00    +0.000 C 
ATOM    105  C74 UNL A   1      28.014  37.105  47.618  1.00  0.00    +0.000 C 
ATOM    106  C75 UNL A   1      27.789  37.970  48.597  1.00  0.00    +0.000 C 
ENDROOT
BRANCH   50   49
ATOM    107  C76 UNL A   1      27.124  39.340  51.775  1.00  0.00    +0.000 C 
ATOM    108  C77 UNL A   1      27.761  40.285  52.583  1.00  0.00    +0.000 C 
ATOM    140  H32 UNL A   1      27.570  42.924  50.521  1.00  0.00    +0.000 H 
ATOM     46  C34 UNL A   1      27.843  41.613  52.156  1.00  0.00    +0.000 C 
ATOM     47  C35 UNL A   1      27.385  41.977  50.887  1.00  0.00    +0.000 C 
ATOM     48  C36 UNL A   1      26.681  41.055  50.123  1.00  0.00    +0.000 C 
ATOM    141  H33 UNL A   1      26.270  41.345  49.222  1.00  0.00    +0.000 H 
ATOM     49  C37 UNL A   1      26.525  39.731  50.567  1.00  0.00    +0.000 C 
ATOM    152  H44 UNL A   1      27.094  38.350  52.068  1.00  0.00    +0.000 H 
ATOM    153  H45 UNL A   1      28.168  40.005  53.489  1.00  0.00    +0.000 H 
BRANCH   46   44
ATOM     44  C33 UNL A   1      28.331  42.642  53.097  1.00  0.00    +0.000 C 
ATOM     45  O10 UNL A   1      27.785  43.739  53.150  1.00  0.00    +0.000 O 
BRANCH   44   43
ATOM     43  N2  UNL A   1      29.432  42.363  53.872  1.00  0.00    +0.000 N 
ATOM    139  H31 UNL A   1      29.248  41.939  54.741  1.00  0.00    +0.000 H 
BRANCH   43   42
ATOM    137  H29 UNL A   1      30.896  43.179  52.668  1.00  0.00    +0.000 H 
ATOM     42  C32 UNL A   1      30.835  42.615  53.576  1.00  0.00    +0.000 C 
ATOM    138  H30 UNL A   1      31.248  43.150  54.406  1.00  0.00    +0.000 H 
BRANCH   42   41
ATOM     41  C31 UNL A   1      31.642  41.337  53.409  1.00  0.00    +0.000 C 
ATOM    135  H27 UNL A   1      31.672  41.095  52.368  1.00  0.00    +0.000 H 
ATOM    136  H28 UNL A   1      32.609  41.534  53.825  1.00  0.00    +0.000 H 
BRANCH   41   40
ATOM    133  H25 UNL A   1      31.417  40.194  55.179  1.00  0.00    +0.000 H 
ATOM    134  H26 UNL A   1      30.025  40.171  54.053  1.00  0.00    +0.000 H 
ATOM     40  C30 UNL A   1      31.089  40.129  54.163  1.00  0.00    +0.000 C 
BRANCH   40   39
ATOM    131  H23 UNL A   1      32.581  38.781  53.481  1.00  0.00    +0.000 H 
ATOM    132  H24 UNL A   1      31.187  38.041  54.328  1.00  0.00    +0.000 H 
ATOM     39  C29 UNL A   1      31.519  38.765  53.613  1.00  0.00    +0.000 C 
BRANCH   39   38
ATOM    129  H21 UNL A   1      30.489  37.372  52.377  1.00  0.00    +0.000 H 
ATOM    130  H22 UNL A   1      30.125  39.089  52.067  1.00  0.00    +0.000 H 
ATOM     38  C28 UNL A   1      30.881  38.363  52.277  1.00  0.00    +0.000 C 
BRANCH   38   37
ATOM     37  C27 UNL A   1      31.847  38.380  51.093  1.00  0.00    +0.000 C 
ATOM    127  H19 UNL A   1      32.379  39.308  51.090  1.00  0.00    +0.000 H 
ATOM    128  H20 UNL A   1      32.524  37.557  51.196  1.00  0.00    +0.000 H 
BRANCH   37   36
ATOM     36  N1  UNL A   1      31.142  38.236  49.837  1.00  0.00    +0.000 N 
ATOM    126  H18 UNL A   1      30.436  38.877  49.597  1.00  0.00    +0.000 H 
BRANCH   36    2
ATOM      1  O1  UNL A   1      31.138  36.048  49.161  1.00  0.00    +0.000 O 
ATOM      2  C1  UNL A   1      31.454  37.219  48.988  1.00  0.00    +0.000 C 
BRANCH    2    3
ATOM      3  C2  UNL A   1      32.205  37.584  47.768  1.00  0.00    +0.000 C 
ATOM    109  H1  UNL A   1      33.227  37.457  47.829  1.00  0.00    +0.000 H 
BRANCH    3    4
ATOM      4  C3  UNL A   1      31.756  38.058  46.585  1.00  0.00    +0.000 C 
ATOM    110  H2  UNL A   1      31.388  37.396  45.884  1.00  0.00    +0.000 H 
BRANCH    4    5
ATOM      5  C4  UNL A   1      31.781  39.577  46.250  1.00  0.00    +0.000 C 
ATOM      6  C5  UNL A   1      32.843  40.151  47.149  1.00  0.00    +0.000 C 
ATOM      7  C6  UNL A   1      34.048  40.533  46.702  1.00  0.00    +0.000 C 
ATOM      9  C7  UNL A   1      34.376  40.513  45.238  1.00  0.00    +0.000 C 
ATOM     10  O3  UNL A   1      35.494  40.850  44.864  1.00  0.00    +0.000 O 
ATOM     11  C8  UNL A   1      33.300  40.155  44.284  1.00  0.00    +0.000 C 
ATOM     12  C9  UNL A   1      32.131  39.748  44.788  1.00  0.00    +0.000 C 
ATOM     13  C10 UNL A   1      30.890  39.503  44.011  1.00  0.00    +0.000 C 
ATOM     14  O4  UNL A   1      30.806  39.211  42.845  1.00  0.00    +0.000 O 
ATOM     15  C11 UNL A   1      29.780  39.789  44.962  1.00  0.00    +0.000 C 
ATOM     16  C12 UNL A   1      28.486  39.821  44.634  1.00  0.00    +0.000 C 
ATOM     17  C13 UNL A   1      27.557  40.527  45.528  1.00  0.00    +0.000 C 
ATOM     18  C14 UNL A   1      26.293  39.980  45.797  1.00  0.00    +0.000 C 
ATOM     19  C15 UNL A   1      25.375  40.717  46.544  1.00  0.00    +0.000 C 
ATOM     21  C16 UNL A   1      25.687  41.999  46.987  1.00  0.00    +0.000 C 
ATOM     23  C17 UNL A   1      26.927  42.555  46.724  1.00  0.00    +0.000 C 
ATOM     24  C18 UNL A   1      27.882  41.805  46.036  1.00  0.00    +0.000 C 
ATOM     25  O7  UNL A   1      29.063  42.452  45.791  1.00  0.00    +0.000 O 
ATOM     26  C19 UNL A   1      30.323  41.846  46.188  1.00  0.00    +0.000 C 
ATOM     35  C26 UNL A   1      30.370  40.277  46.272  1.00  0.00    +0.000 C 
ATOM    111  H3  UNL A   1      32.635  40.256  48.153  1.00  0.00    +0.000 H 
ATOM    113  H5  UNL A   1      33.448  40.217  43.265  1.00  0.00    +0.000 H 
ATOM    114  H6  UNL A   1      28.147  39.361  43.775  1.00  0.00    +0.000 H 
ATOM    115  H7  UNL A   1      26.046  39.042  45.446  1.00  0.00    +0.000 H 
ATOM    118  H10 UNL A   1      27.143  43.517  47.032  1.00  0.00    +0.000 H 
ATOM    119  H11 UNL A   1      31.013  41.994  45.383  1.00  0.00    +0.000 H 
ATOM    125  H17 UNL A   1      29.894  40.045  47.201  1.00  0.00    +0.000 H 
BRANCH    7    8
ATOM    112  H4  UNL A   1      34.804  41.114  48.482  1.00  0.00    +0.000 H 
ATOM      8  O2  UNL A   1      35.018  40.973  47.580  1.00  0.00    +0.000 O 
ENDBRANCH    7    8
BRANCH   19   20
ATOM    116  H8  UNL A   1      23.368  40.664  46.533  1.00  0.00    +0.000 H 
ATOM     20  O5  UNL A   1      24.135  40.232  46.855  1.00  0.00    +0.000 O 
ENDBRANCH   19   20
BRANCH   21   22
ATOM    117  H9  UNL A   1      25.046  43.275  48.394  1.00  0.00    +0.000 H 
ATOM     22  O6  UNL A   1      24.769  42.730  47.684  1.00  0.00    +0.000 O 
ENDBRANCH   21   22
BRANCH   26   27
ATOM     34  C25 UNL A   1      31.631  43.695  47.376  1.00  0.00    +0.000 C 
ATOM     28  C21 UNL A   1      30.409  42.099  48.706  1.00  0.00    +0.000 C 
ATOM    120  H12 UNL A   1      29.897  41.207  48.783  1.00  0.00    +0.000 H 
ATOM    121  H13 UNL A   1      30.334  42.514  50.778  1.00  0.00    +0.000 H 
ATOM     27  C20 UNL A   1      30.809  42.562  47.440  1.00  0.00    +0.000 C 
ATOM    124  H16 UNL A   1      31.979  44.028  46.463  1.00  0.00    +0.000 H 
ATOM     29  C22 UNL A   1      30.693  42.829  49.863  1.00  0.00    +0.000 C 
ATOM     30  C23 UNL A   1      31.464  43.981  49.772  1.00  0.00    +0.000 C 
ATOM     32  C24 UNL A   1      31.980  44.375  48.542  1.00  0.00    +0.000 C 
BRANCH   30   31
ATOM    122  H14 UNL A   1      31.090  44.770  51.576  1.00  0.00    +0.000 H 
ATOM     31  O8  UNL A   1      31.722  44.725  50.886  1.00  0.00    +0.000 O 
ENDBRANCH   30   31
BRANCH   32   33
ATOM     33  O9  UNL A   1      32.816  45.454  48.471  1.00  0.00    +0.000 O 
ATOM    123  H15 UNL A   1      33.700  45.381  48.772  1.00  0.00    +0.000 H 
ENDBRANCH   32   33
ENDBRANCH   26   27
ENDBRANCH    4    5
ENDBRANCH    3    4
ENDBRANCH    2    3
ENDBRANCH   36    2
ENDBRANCH   37   36
ENDBRANCH   38   37
ENDBRANCH   39   38
ENDBRANCH   40   39
ENDBRANCH   41   40
ENDBRANCH   42   41
ENDBRANCH   43   42
ENDBRANCH   44   43
ENDBRANCH   46   44
ENDBRANCH   50   49
BRANCH   54   55
ATOM     65  F5  UNL A   1      28.233  33.152  47.024  1.00  0.00    +0.000 F 
ATOM     55  C42 UNL A   1      27.995  35.049  45.606  1.00  0.00    +0.000 C 
ATOM     56  C43 UNL A   1      28.543  35.821  44.571  1.00  0.00    +0.000 C 
ATOM     57  F1  UNL A   1      27.892  36.902  44.117  1.00  0.00    +0.000 F 
ATOM     58  C44 UNL A   1      29.755  35.469  43.980  1.00  0.00    +0.000 C 
ATOM     59  F2  UNL A   1      30.245  36.203  42.971  1.00  0.00    +0.000 F 
ATOM     60  C45 UNL A   1      30.452  34.357  44.429  1.00  0.00    +0.000 C 
ATOM     61  F3  UNL A   1      31.625  34.029  43.868  1.00  0.00    +0.000 F 
ATOM     62  C46 UNL A   1      29.934  33.585  45.457  1.00  0.00    +0.000 C 
ATOM     63  F4  UNL A   1      30.611  32.517  45.899  1.00  0.00    +0.000 F 
ATOM     64  C47 UNL A   1      28.710  33.920  46.034  1.00  0.00    +0.000 C 
ENDBRANCH   54   55
BRANCH   71   72
ATOM     72  C53 UNL A   1      21.025  33.268  45.424  1.00  0.00    +0.000 C 
ATOM     73  C54 UNL A   1      20.910  31.914  45.771  1.00  0.00    +0.000 C 
ATOM     74  F6  UNL A   1      21.655  31.408  46.766  1.00  0.00    +0.000 F 
ATOM     75  C55 UNL A   1      20.052  31.068  45.075  1.00  0.00    +0.000 C 
ATOM     76  F7  UNL A   1      19.984  29.771  45.399  1.00  0.00    +0.000 F 
ATOM     77  C56 UNL A   1      19.273  31.566  44.040  1.00  0.00    +0.000 C 
ATOM     78  F8  UNL A   1      18.438  30.753  43.378  1.00  0.00    +0.000 F 
ATOM     79  C57 UNL A   1      19.362  32.905  43.689  1.00  0.00    +0.000 C 
ATOM     80  F9  UNL A   1      18.601  33.389  42.698  1.00  0.00    +0.000 F 
ATOM     81  C58 UNL A   1      20.239  33.747  44.367  1.00  0.00    +0.000 C 
ATOM     82  F10 UNL A   1      20.307  35.036  44.003  1.00  0.00    +0.000 F 
ENDBRANCH   71   72
BRANCH   86   87
ATOM     97  F15 UNL A   1      19.137  39.409  48.845  1.00  0.00    +0.000 F 
ATOM     87  C62 UNL A   1      19.780  37.853  50.522  1.00  0.00    +0.000 C 
ATOM     88  C63 UNL A   1      19.489  37.276  51.766  1.00  0.00    +0.000 C 
ATOM     89  F11 UNL A   1      20.292  36.324  52.265  1.00  0.00    +0.000 F 
ATOM     90  C64 UNL A   1      18.362  37.659  52.488  1.00  0.00    +0.000 C 
ATOM     91  F12 UNL A   1      18.090  37.072  53.662  1.00  0.00    +0.000 F 
ATOM     92  C65 UNL A   1      17.517  38.641  51.992  1.00  0.00    +0.000 C 
ATOM     93  F13 UNL A   1      16.440  39.018  52.694  1.00  0.00    +0.000 F 
ATOM     94  C66 UNL A   1      17.788  39.229  50.766  1.00  0.00    +0.000 C 
ATOM     95  F14 UNL A   1      16.982  40.188  50.289  1.00  0.00    +0.000 F 
ATOM     96  C67 UNL A   1      18.900  38.828  50.031  1.00  0.00    +0.000 C 
ENDBRANCH   86   87
TORSDOF 23
ENDMDL
MODEL 10
REMARK VINA RESULT:      -8.0      1.723      3.565
ROOT
ATOM    142  H34 UNL A   1      18.781  53.927  -1.165  1.00  0.00    +0.000 H 
ATOM    143  H35 UNL A   1      18.456  51.439  -1.869  1.00  0.00    +0.000 H 
ATOM    144  H36 UNL A   1      16.062  52.182   1.427  1.00  0.00    +0.000 H 
ATOM    145  H37 UNL A   1      12.067  50.069   5.922  1.00  0.00    +0.000 H 
ATOM    146  H38 UNL A   1      12.165  52.554   6.436  1.00  0.00    +0.000 H 
ATOM    147  H39 UNL A   1      14.609  51.840   3.150  1.00  0.00    +0.000 H 
ATOM    148  H40 UNL A   1      13.983  46.981   2.018  1.00  0.00    +0.000 H 
ATOM    149  H41 UNL A   1      15.657  47.338   0.113  1.00  0.00    +0.000 H 
ATOM    150  H42 UNL A   1      16.605  57.024   2.631  1.00  0.00    +0.000 H 
ATOM    151  H43 UNL A   1      15.085  56.644   4.656  1.00  0.00    +0.000 H 
ATOM     50  C38 UNL A   1      13.967  54.018   4.787  1.00  0.00    +0.000 C 
ATOM     51  C39 UNL A   1      14.952  54.555   3.783  1.00  0.00    +0.000 C 
ATOM     52  N3  UNL A   1      15.519  53.944   2.772  1.00  0.00    +0.000 N 
ATOM     53  C40 UNL A   1      16.326  54.892   2.155  1.00  0.00    +0.000 C 
ATOM     54  C41 UNL A   1      17.143  54.740   1.086  1.00  0.00    +0.000 C 
ATOM     66  C48 UNL A   1      17.333  53.502   0.377  1.00  0.00    +0.000 C 
ATOM     67  C49 UNL A   1      18.155  53.247  -0.708  1.00  0.00    +0.000 C 
ATOM     68  C50 UNL A   1      17.991  51.908  -1.076  1.00  0.00    +0.000 C 
ATOM     69  C51 UNL A   1      17.098  51.318  -0.197  1.00  0.00    +0.000 C 
ATOM     70  N4  UNL A   1      16.699  52.308   0.688  1.00  0.00    +0.000 N 
ATOM     71  C52 UNL A   1      16.636  49.954  -0.167  1.00  0.00    +0.000 C 
ATOM     83  C59 UNL A   1      15.796  49.437   0.762  1.00  0.00    +0.000 C 
ATOM     84  N5  UNL A   1      15.196  50.071   1.841  1.00  0.00    +0.000 N 
ATOM     85  C60 UNL A   1      14.450  49.164   2.420  1.00  0.00    +0.000 C 
ATOM     86  C61 UNL A   1      13.575  49.291   3.635  1.00  0.00    +0.000 C 
ATOM     98  C68 UNL A   1      13.443  50.493   4.226  1.00  0.00    +0.000 C 
ATOM     99  C69 UNL A   1      12.615  50.769   5.398  1.00  0.00    +0.000 C 
ATOM    100  C70 UNL A   1      12.682  52.078   5.681  1.00  0.00    +0.000 C 
ATOM    101  C71 UNL A   1      13.607  52.722   4.747  1.00  0.00    +0.000 C 
ATOM    102  N6  UNL A   1      13.994  51.708   3.908  1.00  0.00    +0.000 N 
ATOM    103  C72 UNL A   1      14.490  47.846   1.770  1.00  0.00    +0.000 C 
ATOM    104  C73 UNL A   1      15.348  48.061   0.782  1.00  0.00    +0.000 C 
ATOM    105  C74 UNL A   1      16.158  56.129   2.887  1.00  0.00    +0.000 C 
ATOM    106  C75 UNL A   1      15.356  55.963   3.930  1.00  0.00    +0.000 C 
ENDROOT
BRANCH   50   49
ATOM    107  C76 UNL A   1      12.164  55.464   5.792  1.00  0.00    +0.000 C 
ATOM    108  C77 UNL A   1      11.757  56.409   6.738  1.00  0.00    +0.000 C 
ATOM    140  H32 UNL A   1      14.384  56.205   8.815  1.00  0.00    +0.000 H 
ATOM     46  C34 UNL A   1      12.613  56.738   7.793  1.00  0.00    +0.000 C 
ATOM     47  C35 UNL A   1      13.821  56.058   7.963  1.00  0.00    +0.000 C 
ATOM     48  C36 UNL A   1      14.257  55.181   6.978  1.00  0.00    +0.000 C 
ATOM    141  H33 UNL A   1      15.186  54.740   7.060  1.00  0.00    +0.000 H 
ATOM     49  C37 UNL A   1      13.443  54.889   5.871  1.00  0.00    +0.000 C 
ATOM    152  H44 UNL A   1      11.522  55.188   5.032  1.00  0.00    +0.000 H 
ATOM    153  H45 UNL A   1      10.833  56.859   6.659  1.00  0.00    +0.000 H 
BRANCH   46   44
ATOM     44  C33 UNL A   1      12.268  57.877   8.668  1.00  0.00    +0.000 C 
ATOM     45  O10 UNL A   1      12.838  58.954   8.532  1.00  0.00    +0.000 O 
BRANCH   44   43
ATOM     43  N2  UNL A   1      11.337  57.692   9.664  1.00  0.00    +0.000 N 
ATOM    139  H31 UNL A   1      10.597  58.341   9.684  1.00  0.00    +0.000 H 
BRANCH   43   42
ATOM    137  H29 UNL A   1      12.309  56.420  10.966  1.00  0.00    +0.000 H 
ATOM     42  C32 UNL A   1      11.304  56.661  10.691  1.00  0.00    +0.000 C 
ATOM    138  H30 UNL A   1      10.747  57.050  11.518  1.00  0.00    +0.000 H 
BRANCH   42   41
ATOM     41  C31 UNL A   1      10.608  55.390  10.229  1.00  0.00    +0.000 C 
ATOM    135  H27 UNL A   1       9.844  55.151  10.939  1.00  0.00    +0.000 H 
ATOM    136  H28 UNL A   1      10.226  55.593   9.250  1.00  0.00    +0.000 H 
BRANCH   41   40
ATOM    133  H25 UNL A   1      10.909  53.299  10.061  1.00  0.00    +0.000 H 
ATOM    134  H26 UNL A   1      12.089  54.329   9.194  1.00  0.00    +0.000 H 
ATOM     40  C30 UNL A   1      11.523  54.175  10.090  1.00  0.00    +0.000 C 
BRANCH   40   39
ATOM    131  H23 UNL A   1      12.518  54.872  11.830  1.00  0.00    +0.000 H 
ATOM    132  H24 UNL A   1      12.270  53.101  11.729  1.00  0.00    +0.000 H 
ATOM     39  C29 UNL A   1      12.548  53.998  11.214  1.00  0.00    +0.000 C 
BRANCH   39   38
ATOM    129  H21 UNL A   1      14.326  54.681  10.265  1.00  0.00    +0.000 H 
ATOM    130  H22 UNL A   1      14.568  53.567  11.634  1.00  0.00    +0.000 H 
ATOM     38  C28 UNL A   1      13.998  53.789  10.757  1.00  0.00    +0.000 C 
BRANCH   38   37
ATOM     37  C27 UNL A   1      14.189  52.615   9.799  1.00  0.00    +0.000 C 
ATOM    127  H19 UNL A   1      13.464  52.683   9.015  1.00  0.00    +0.000 H 
ATOM    128  H20 UNL A   1      15.181  52.661   9.400  1.00  0.00    +0.000 H 
BRANCH   37   36
ATOM     36  N1  UNL A   1      14.029  51.349  10.481  1.00  0.00    +0.000 N 
ATOM    126  H18 UNL A   1      13.365  51.262  11.201  1.00  0.00    +0.000 H 
BRANCH   36    2
ATOM      1  O1  UNL A   1      16.016  50.251  10.179  1.00  0.00    +0.000 O 
ATOM      2  C1  UNL A   1      14.792  50.278  10.128  1.00  0.00    +0.000 C 
BRANCH    2    3
ATOM      3  C2  UNL A   1      14.068  49.070   9.679  1.00  0.00    +0.000 C 
ATOM    109  H1  UNL A   1      14.447  48.177  10.033  1.00  0.00    +0.000 H 
BRANCH    3    4
ATOM      4  C3  UNL A   1      12.987  48.956   8.877  1.00  0.00    +0.000 C 
ATOM    110  H2  UNL A   1      13.124  48.871   7.857  1.00  0.00    +0.000 H 
BRANCH    4    5
ATOM      5  C4  UNL A   1      11.541  48.950   9.449  1.00  0.00    +0.000 C 
ATOM      6  C5  UNL A   1      11.043  50.357   9.249  1.00  0.00    +0.000 C 
ATOM      7  C6  UNL A   1      10.146  50.686   8.309  1.00  0.00    +0.000 C 
ATOM      9  C7  UNL A   1       9.491  49.637   7.459  1.00  0.00    +0.000 C 
ATOM     10  O3  UNL A   1       8.688  49.973   6.595  1.00  0.00    +0.000 O 
ATOM     11  C8  UNL A   1       9.786  48.214   7.751  1.00  0.00    +0.000 C 
ATOM     12  C9  UNL A   1      10.714  47.948   8.673  1.00  0.00    +0.000 C 
ATOM     13  C10 UNL A   1      11.035  46.604   9.219  1.00  0.00    +0.000 C 
ATOM     14  O4  UNL A   1      10.865  45.540   8.681  1.00  0.00    +0.000 O 
ATOM     15  C11 UNL A   1      11.519  46.860  10.604  1.00  0.00    +0.000 C 
ATOM     16  C12 UNL A   1      11.791  45.909  11.502  1.00  0.00    +0.000 C 
ATOM     17  C13 UNL A   1      11.832  46.283  12.922  1.00  0.00    +0.000 C 
ATOM     18  C14 UNL A   1      12.823  45.747  13.759  1.00  0.00    +0.000 C 
ATOM     19  C15 UNL A   1      12.777  46.010  15.127  1.00  0.00    +0.000 C 
ATOM     21  C16 UNL A   1      11.740  46.763  15.671  1.00  0.00    +0.000 C 
ATOM     23  C17 UNL A   1      10.752  47.293  14.860  1.00  0.00    +0.000 C 
ATOM     24  C18 UNL A   1      10.820  47.097  13.480  1.00  0.00    +0.000 C 
ATOM     25  O7  UNL A   1       9.778  47.626  12.766  1.00  0.00    +0.000 O 
ATOM     26  C19 UNL A   1      10.040  48.517  11.648  1.00  0.00    +0.000 C 
ATOM     35  C26 UNL A   1      11.409  48.344  10.896  1.00  0.00    +0.000 C 
ATOM    111  H3  UNL A   1      11.409  51.101   9.862  1.00  0.00    +0.000 H 
ATOM    113  H5  UNL A   1       9.291  47.456   7.258  1.00  0.00    +0.000 H 
ATOM    114  H6  UNL A   1      11.968  44.937  11.206  1.00  0.00    +0.000 H 
ATOM    115  H7  UNL A   1      13.577  45.164  13.366  1.00  0.00    +0.000 H 
ATOM    118  H10 UNL A   1       9.971  47.828  15.273  1.00  0.00    +0.000 H 
ATOM    119  H11 UNL A   1       9.375  48.237  10.858  1.00  0.00    +0.000 H 
ATOM    125  H17 UNL A   1      12.125  48.827  11.529  1.00  0.00    +0.000 H 
BRANCH    7    8
ATOM    112  H4  UNL A   1       9.697  52.337   7.237  1.00  0.00    +0.000 H 
ATOM      8  O2  UNL A   1       9.786  52.003   8.108  1.00  0.00    +0.000 O 
ENDBRANCH    7    8
BRANCH   19   20
ATOM    116  H8  UNL A   1      14.329  44.876  15.708  1.00  0.00    +0.000 H 
ATOM     20  O5  UNL A   1      13.723  45.533  15.992  1.00  0.00    +0.000 O 
ENDBRANCH   19   20
BRANCH   21   22
ATOM    117  H9  UNL A   1      11.740  47.857  17.351  1.00  0.00    +0.000 H 
ATOM     22  O6  UNL A   1      11.681  46.984  17.017  1.00  0.00    +0.000 O 
ENDBRANCH   21   22
BRANCH   26   27
ATOM     34  C25 UNL A   1      10.615  50.641  12.953  1.00  0.00    +0.000 C 
ATOM     28  C21 UNL A   1       8.582  50.588  11.659  1.00  0.00    +0.000 C 
ATOM    120  H12 UNL A   1       7.875  50.056  11.128  1.00  0.00    +0.000 H 
ATOM    121  H13 UNL A   1       7.544  52.425  11.526  1.00  0.00    +0.000 H 
ATOM     27  C20 UNL A   1       9.746  49.938  12.108  1.00  0.00    +0.000 C 
ATOM    124  H16 UNL A   1      11.451  50.172  13.337  1.00  0.00    +0.000 H 
ATOM     29  C22 UNL A   1       8.367  51.943  11.920  1.00  0.00    +0.000 C 
ATOM     30  C23 UNL A   1       9.271  52.637  12.716  1.00  0.00    +0.000 C 
ATOM     32  C24 UNL A   1      10.355  51.971  13.279  1.00  0.00    +0.000 C 
BRANCH   30   31
ATOM    122  H14 UNL A   1       8.410  54.258  13.522  1.00  0.00    +0.000 H 
ATOM     31  O8  UNL A   1       9.095  53.969  12.952  1.00  0.00    +0.000 O 
ENDBRANCH   30   31
BRANCH   32   33
ATOM     33  O9  UNL A   1      11.186  52.633  14.137  1.00  0.00    +0.000 O 
ATOM    123  H15 UNL A   1      12.108  52.465  14.118  1.00  0.00    +0.000 H 
ENDBRANCH   32   33
ENDBRANCH   26   27
ENDBRANCH    4    5
ENDBRANCH    3    4
ENDBRANCH    2    3
ENDBRANCH   36    2
ENDBRANCH   37   36
ENDBRANCH   38   37
ENDBRANCH   39   38
ENDBRANCH   40   39
ENDBRANCH   41   40
ENDBRANCH   42   41
ENDBRANCH   43   42
ENDBRANCH   44   43
ENDBRANCH   46   44
ENDBRANCH   50   49
BRANCH   54   55
ATOM     65  F5  UNL A   1      16.080  56.597  -0.786  1.00  0.00    +0.000 F 
ATOM     55  C42 UNL A   1      17.898  55.943   0.604  1.00  0.00    +0.000 C 
ATOM     56  C43 UNL A   1      19.209  56.204   1.027  1.00  0.00    +0.000 C 
ATOM     57  F1  UNL A   1      19.793  55.418   1.943  1.00  0.00    +0.000 F 
ATOM     58  C44 UNL A   1      19.920  57.293   0.525  1.00  0.00    +0.000 C 
ATOM     59  F2  UNL A   1      21.161  57.541   0.965  1.00  0.00    +0.000 F 
ATOM     60  C45 UNL A   1      19.343  58.123  -0.425  1.00  0.00    +0.000 C 
ATOM     61  F3  UNL A   1      20.035  59.161  -0.917  1.00  0.00    +0.000 F 
ATOM     62  C46 UNL A   1      18.051  57.879  -0.863  1.00  0.00    +0.000 C 
ATOM     63  F4  UNL A   1      17.497  58.674  -1.788  1.00  0.00    +0.000 F 
ATOM     64  C47 UNL A   1      17.329  56.805  -0.346  1.00  0.00    +0.000 C 
ENDBRANCH   54   55
BRANCH   71   72
ATOM     72  C53 UNL A   1      17.128  49.030  -1.240  1.00  0.00    +0.000 C 
ATOM     73  C54 UNL A   1      16.553  49.029  -2.519  1.00  0.00    +0.000 C 
ATOM     74  F6  UNL A   1      15.498  49.816  -2.785  1.00  0.00    +0.000 F 
ATOM     75  C55 UNL A   1      17.041  48.196  -3.521  1.00  0.00    +0.000 C 
ATOM     76  F7  UNL A   1      16.455  48.185  -4.725  1.00  0.00    +0.000 F 
ATOM     77  C56 UNL A   1      18.129  47.371  -3.272  1.00  0.00    +0.000 C 
ATOM     78  F8  UNL A   1      18.605  46.578  -4.242  1.00  0.00    +0.000 F 
ATOM     79  C57 UNL A   1      18.720  47.366  -2.018  1.00  0.00    +0.000 C 
ATOM     80  F9  UNL A   1      19.777  46.578  -1.780  1.00  0.00    +0.000 F 
ATOM     81  C58 UNL A   1      18.217  48.179  -1.006  1.00  0.00    +0.000 C 
ATOM     82  F10 UNL A   1      18.806  48.149   0.199  1.00  0.00    +0.000 F 
ENDBRANCH   71   72
BRANCH   86   87
ATOM     97  F15 UNL A   1      11.129  48.308   2.562  1.00  0.00    +0.000 F 
ATOM     87  C62 UNL A   1      12.853  48.118   4.187  1.00  0.00    +0.000 C 
ATOM     88  C63 UNL A   1      13.348  47.430   5.303  1.00  0.00    +0.000 C 
ATOM     89  F11 UNL A   1      14.512  47.801   5.856  1.00  0.00    +0.000 F 
ATOM     90  C64 UNL A   1      12.659  46.345   5.839  1.00  0.00    +0.000 C 
ATOM     91  F12 UNL A   1      13.167  45.685   6.889  1.00  0.00    +0.000 F 
ATOM     92  C65 UNL A   1      11.453  45.942   5.285  1.00  0.00    +0.000 C 
ATOM     93  F13 UNL A   1      10.785  44.906   5.810  1.00  0.00    +0.000 F 
ATOM     94  C66 UNL A   1      10.943  46.611   4.183  1.00  0.00    +0.000 C 
ATOM     95  F14 UNL A   1       9.771  46.234   3.653  1.00  0.00    +0.000 F 
ATOM     96  C67 UNL A   1      11.643  47.680   3.630  1.00  0.00    +0.000 C 
ENDBRANCH   86   87
TORSDOF 23
ENDMDL
