MODEL 1
REMARK VINA RESULT:     -10.8      0.000      0.000
ROOT
ATOM     30  C25 UNL A   1      38.005  30.049  29.767  1.00  0.00    +0.000 C 
ATOM     31  C26 UNL A   1      39.052  29.123  29.214  1.00  0.00    +0.000 C 
ATOM     32  N4  UNL A   1      40.155  28.690  29.773  1.00  0.00    +0.000 N 
ATOM     33  C27 UNL A   1      40.730  27.826  28.851  1.00  0.00    +0.000 C 
ATOM     34  C28 UNL A   1      41.910  27.163  28.935  1.00  0.00    +0.000 C 
ATOM     46  C35 UNL A   1      42.813  27.254  30.053  1.00  0.00    +0.000 C 
ATOM     47  C36 UNL A   1      44.058  26.670  30.206  1.00  0.00    +0.000 C 
ATOM     48  C37 UNL A   1      44.548  27.012  31.471  1.00  0.00    +0.000 C 
ATOM     49  C38 UNL A   1      43.628  27.842  32.089  1.00  0.00    +0.000 C 
ATOM     50  N5  UNL A   1      42.566  27.979  31.208  1.00  0.00    +0.000 N 
ATOM     51  C39 UNL A   1      43.708  28.465  33.385  1.00  0.00    +0.000 C 
ATOM     63  C46 UNL A   1      42.764  29.280  33.917  1.00  0.00    +0.000 C 
ATOM     64  N6  UNL A   1      41.560  29.694  33.367  1.00  0.00    +0.000 N 
ATOM     65  C47 UNL A   1      40.997  30.463  34.268  1.00  0.00    +0.000 C 
ATOM     66  C48 UNL A   1      39.691  31.206  34.200  1.00  0.00    +0.000 C 
ATOM     78  C55 UNL A   1      38.949  31.133  33.079  1.00  0.00    +0.000 C 
ATOM     79  C56 UNL A   1      37.667  31.799  32.868  1.00  0.00    +0.000 C 
ATOM     80  C57 UNL A   1      37.194  31.463  31.658  1.00  0.00    +0.000 C 
ATOM     81  C58 UNL A   1      38.156  30.582  30.995  1.00  0.00    +0.000 C 
ATOM     82  N7  UNL A   1      39.171  30.449  31.909  1.00  0.00    +0.000 N 
ATOM     83  C59 UNL A   1      41.775  30.602  35.507  1.00  0.00    +0.000 C 
ATOM     84  C60 UNL A   1      42.859  29.892  35.226  1.00  0.00    +0.000 C 
ATOM     85  C61 UNL A   1      39.834  27.759  27.717  1.00  0.00    +0.000 C 
ATOM     86  C62 UNL A   1      38.814  28.592  27.863  1.00  0.00    +0.000 C 
ATOM    119  H28 UNL A   1      44.541  26.083  29.508  1.00  0.00    +0.000 H 
ATOM    120  H29 UNL A   1      45.445  26.698  31.876  1.00  0.00    +0.000 H 
ATOM    121  H30 UNL A   1      41.756  28.512  31.379  1.00  0.00    +0.000 H 
ATOM    122  H31 UNL A   1      37.201  32.429  33.540  1.00  0.00    +0.000 H 
ATOM    123  H32 UNL A   1      36.295  31.775  31.259  1.00  0.00    +0.000 H 
ATOM    124  H33 UNL A   1      39.981  29.916  31.742  1.00  0.00    +0.000 H 
ATOM    125  H34 UNL A   1      41.539  31.116  36.371  1.00  0.00    +0.000 H 
ATOM    126  H35 UNL A   1      43.667  29.788  35.860  1.00  0.00    +0.000 H 
ATOM    127  H36 UNL A   1      39.972  27.144  26.900  1.00  0.00    +0.000 H 
ATOM    128  H37 UNL A   1      38.052  28.809  27.203  1.00  0.00    +0.000 H 
ENDROOT
BRANCH   30   29
ATOM    129  H38 UNL A   1      36.043  28.342  29.128  1.00  0.00    +0.000 H 
ATOM    130  H39 UNL A   1      34.068  28.739  27.779  1.00  0.00    +0.000 H 
ATOM    117  H26 UNL A   1      35.103  32.803  27.446  1.00  0.00    +0.000 H 
ATOM    118  H27 UNL A   1      37.180  32.367  28.626  1.00  0.00    +0.000 H 
ATOM     87  C63 UNL A   1      35.857  29.286  28.753  1.00  0.00    +0.000 C 
ATOM     88  C64 UNL A   1      34.701  29.521  28.011  1.00  0.00    +0.000 C 
ATOM     26  C21 UNL A   1      34.396  30.816  27.582  1.00  0.00    +0.000 C 
ATOM     27  C22 UNL A   1      35.308  31.854  27.797  1.00  0.00    +0.000 C 
ATOM     28  C23 UNL A   1      36.497  31.605  28.487  1.00  0.00    +0.000 C 
ATOM     29  C24 UNL A   1      36.769  30.325  28.993  1.00  0.00    +0.000 C 
BRANCH   26   24
ATOM     25  O2  UNL A   1      32.513  32.124  27.107  1.00  0.00    +0.000 O 
ATOM     24  C20 UNL A   1      33.143  31.107  26.849  1.00  0.00    +0.000 C 
BRANCH   24   23
ATOM    116  H25 UNL A   1      33.064  30.384  24.982  1.00  0.00    +0.000 H 
ATOM     23  N3  UNL A   1      32.688  30.245  25.881  1.00  0.00    +0.000 N 
BRANCH   23   22
ATOM    114  H23 UNL A   1      31.281  29.189  26.963  1.00  0.00    +0.000 H 
ATOM    115  H24 UNL A   1      30.997  29.281  25.223  1.00  0.00    +0.000 H 
ATOM     22  C19 UNL A   1      31.729  29.156  25.992  1.00  0.00    +0.000 C 
BRANCH   22   21
ATOM    113  H22 UNL A   1      31.595  27.076  25.780  1.00  0.00    +0.000 H 
ATOM     21  C18 UNL A   1      32.388  27.792  25.799  1.00  0.00    +0.000 C 
ATOM    112  H21 UNL A   1      33.078  27.639  26.604  1.00  0.00    +0.000 H 
BRANCH   21   20
ATOM     20  C17 UNL A   1      33.153  27.625  24.482  1.00  0.00    +0.000 C 
ATOM    110  H19 UNL A   1      32.467  27.799  23.679  1.00  0.00    +0.000 H 
ATOM    111  H20 UNL A   1      33.960  28.326  24.522  1.00  0.00    +0.000 H 
BRANCH   20   19
ATOM     19  C16 UNL A   1      33.803  26.252  24.259  1.00  0.00    +0.000 C 
ATOM    108  H17 UNL A   1      33.140  25.667  23.657  1.00  0.00    +0.000 H 
ATOM    109  H18 UNL A   1      34.747  26.445  23.795  1.00  0.00    +0.000 H 
BRANCH   19   18
ATOM     18  C15 UNL A   1      34.111  25.458  25.533  1.00  0.00    +0.000 C 
ATOM    107  H16 UNL A   1      33.199  24.985  25.831  1.00  0.00    +0.000 H 
ATOM    106  H15 UNL A   1      34.484  26.137  26.271  1.00  0.00    +0.000 H 
BRANCH   18   17
ATOM     17  C14 UNL A   1      35.143  24.345  25.337  1.00  0.00    +0.000 C 
ATOM    105  H14 UNL A   1      35.943  24.511  26.029  1.00  0.00    +0.000 H 
ATOM    104  H13 UNL A   1      35.495  24.372  24.326  1.00  0.00    +0.000 H 
BRANCH   17   16
ATOM    103  H12 UNL A   1      35.089  22.288  25.210  1.00  0.00    +0.000 H 
ATOM     16  N2  UNL A   1      34.585  23.036  25.604  1.00  0.00    +0.000 N 
BRANCH   16   14
ATOM     14  C13 UNL A   1      33.480  22.665  26.309  1.00  0.00    +0.000 C 
ATOM     15  O1  UNL A   1      33.578  22.692  27.542  1.00  0.00    +0.000 O 
BRANCH   14   12
ATOM     99  H8  UNL A   1      31.567  21.815  26.447  1.00  0.00    +0.000 H 
ATOM     12  C11 UNL A   1      32.168  22.210  25.654  1.00  0.00    +0.000 C 
BRANCH   12   11
ATOM     97  H6  UNL A   1      30.377  24.932  22.312  1.00  0.00    +0.000 H 
ATOM     98  H7  UNL A   1      31.563  22.974  23.067  1.00  0.00    +0.000 H 
ATOM    131  H40 UNL A   1      30.798  24.053  27.045  1.00  0.00    +0.000 H 
ATOM    132  H41 UNL A   1      29.493  25.935  26.286  1.00  0.00    +0.000 H 
ATOM      8  C7  UNL A   1      29.833  25.629  24.227  1.00  0.00    +0.000 C 
ATOM      9  C8  UNL A   1      30.449  24.746  23.325  1.00  0.00    +0.000 C 
ATOM     10  C9  UNL A   1      31.158  23.621  23.762  1.00  0.00    +0.000 C 
ATOM     11  C10 UNL A   1      31.327  23.360  25.123  1.00  0.00    +0.000 C 
ATOM     89  C65 UNL A   1      30.705  24.229  26.032  1.00  0.00    +0.000 C 
ATOM     90  C66 UNL A   1      29.959  25.331  25.592  1.00  0.00    +0.000 C 
BRANCH    8    7
ATOM      3  C3  UNL A   1      29.012  28.989  22.625  1.00  0.00    +0.000 C 
ATOM      4  C4  UNL A   1      27.641  28.992  22.856  1.00  0.00    +0.000 C 
ATOM      5  N1  UNL A   1      26.973  27.999  23.484  1.00  0.00    +0.000 N 
ATOM    133  H42 UNL A   1      30.759  27.850  22.944  1.00  0.00    +0.000 H 
ATOM      7  C6  UNL A   1      29.098  26.820  23.750  1.00  0.00    +0.000 C 
ATOM      6  C5  UNL A   1      27.717  26.953  23.916  1.00  0.00    +0.000 C 
ATOM     91  C67 UNL A   1      29.737  27.884  23.090  1.00  0.00    +0.000 C 
ATOM     95  H4  UNL A   1      27.099  29.804  22.525  1.00  0.00    +0.000 H 
ATOM     96  H5  UNL A   1      27.224  26.191  24.408  1.00  0.00    +0.000 H 
BRANCH    3    2
ATOM      2  C2  UNL A   1      29.645  30.142  21.973  1.00  0.00    +0.000 C 
ATOM     94  H3  UNL A   1      30.611  30.032  21.632  1.00  0.00    +0.000 H 
BRANCH    2    1
ATOM      1  C1  UNL A   1      29.048  31.327  21.794  1.00  0.00    +0.000 C 
ATOM     92  H1  UNL A   1      28.408  31.466  20.996  1.00  0.00    +0.000 H 
ATOM     93  H2  UNL A   1      29.227  32.100  22.454  1.00  0.00    +0.000 H 
ENDBRANCH    2    1
ENDBRANCH    3    2
ENDBRANCH    8    7
ENDBRANCH   12   11
BRANCH   12   13
ATOM    101  H10 UNL A   1      32.988  21.232  23.936  1.00  0.00    +0.000 H 
ATOM    100  H9  UNL A   1      32.696  20.169  25.292  1.00  0.00    +0.000 H 
ATOM     13  C12 UNL A   1      32.314  20.996  24.733  1.00  0.00    +0.000 C 
ATOM    102  H11 UNL A   1      31.357  20.741  24.326  1.00  0.00    +0.000 H 
ENDBRANCH   12   13
ENDBRANCH   14   12
ENDBRANCH   16   14
ENDBRANCH   17   16
ENDBRANCH   18   17
ENDBRANCH   19   18
ENDBRANCH   20   19
ENDBRANCH   21   20
ENDBRANCH   22   21
ENDBRANCH   23   22
ENDBRANCH   24   23
ENDBRANCH   26   24
ENDBRANCH   30   29
BRANCH   34   35
ATOM     35  C29 UNL A   1      42.293  26.282  27.782  1.00  0.00    +0.000 C 
ATOM     36  C30 UNL A   1      43.210  26.706  26.809  1.00  0.00    +0.000 C 
ATOM     37  F1  UNL A   1      43.737  27.938  26.870  1.00  0.00    +0.000 F 
ATOM     38  C31 UNL A   1      43.560  25.878  25.745  1.00  0.00    +0.000 C 
ATOM     39  F2  UNL A   1      44.400  26.322  24.801  1.00  0.00    +0.000 F 
ATOM     40  C32 UNL A   1      43.026  24.601  25.653  1.00  0.00    +0.000 C 
ATOM     41  F3  UNL A   1      43.367  23.804  24.631  1.00  0.00    +0.000 F 
ATOM     42  C33 UNL A   1      42.135  24.154  26.616  1.00  0.00    +0.000 C 
ATOM     43  F4  UNL A   1      41.628  22.916  26.534  1.00  0.00    +0.000 F 
ATOM     44  C34 UNL A   1      41.761  24.989  27.666  1.00  0.00    +0.000 C 
ATOM     45  F5  UNL A   1      40.886  24.533  28.574  1.00  0.00    +0.000 F 
ENDBRANCH   34   35
BRANCH   51   52
ATOM     52  C40 UNL A   1      44.938  28.214  34.205  1.00  0.00    +0.000 C 
ATOM     53  C41 UNL A   1      46.050  29.066  34.141  1.00  0.00    +0.000 C 
ATOM     54  F6  UNL A   1      46.054  30.108  33.295  1.00  0.00    +0.000 F 
ATOM     55  C42 UNL A   1      47.178  28.830  34.922  1.00  0.00    +0.000 C 
ATOM     56  F7  UNL A   1      48.246  29.631  34.814  1.00  0.00    +0.000 F 
ATOM     57  C43 UNL A   1      47.204  27.756  35.801  1.00  0.00    +0.000 C 
ATOM     58  F8  UNL A   1      48.289  27.532  36.555  1.00  0.00    +0.000 F 
ATOM     59  C44 UNL A   1      46.109  26.910  35.891  1.00  0.00    +0.000 C 
ATOM     60  F9  UNL A   1      46.129  25.878  36.747  1.00  0.00    +0.000 F 
ATOM     61  C45 UNL A   1      44.990  27.129  35.093  1.00  0.00    +0.000 C 
ATOM     62  F10 UNL A   1      43.950  26.287  35.194  1.00  0.00    +0.000 F 
ENDBRANCH   51   52
BRANCH   66   67
ATOM     67  C49 UNL A   1      39.232  32.041  35.339  1.00  0.00    +0.000 C 
ATOM     68  C50 UNL A   1      38.443  31.491  36.358  1.00  0.00    +0.000 C 
ATOM     69  F11 UNL A   1      38.076  30.202  36.297  1.00  0.00    +0.000 F 
ATOM     70  C51 UNL A   1      37.995  32.270  37.422  1.00  0.00    +0.000 C 
ATOM     71  F12 UNL A   1      37.209  31.728  38.362  1.00  0.00    +0.000 F 
ATOM     72  C52 UNL A   1      38.352  33.608  37.502  1.00  0.00    +0.000 C 
ATOM     73  F13 UNL A   1      37.926  34.356  38.528  1.00  0.00    +0.000 F 
ATOM     74  C53 UNL A   1      39.145  34.170  36.512  1.00  0.00    +0.000 C 
ATOM     75  F14 UNL A   1      39.501  35.460  36.593  1.00  0.00    +0.000 F 
ATOM     76  C54 UNL A   1      39.572  33.398  35.435  1.00  0.00    +0.000 C 
ATOM     77  F15 UNL A   1      40.330  33.970  34.487  1.00  0.00    +0.000 F 
ENDBRANCH   66   67
TORSDOF 20
ENDMDL
MODEL 2
REMARK VINA RESULT:     -10.7      4.173      7.304
ROOT
ATOM     30  C25 UNL A   1      41.303  26.551  27.610  1.00  0.00    +0.000 C 
ATOM     31  C26 UNL A   1      42.744  26.804  27.270  1.00  0.00    +0.000 C 
ATOM     32  N4  UNL A   1      43.501  27.829  27.577  1.00  0.00    +0.000 N 
ATOM     33  C27 UNL A   1      44.757  27.539  27.059  1.00  0.00    +0.000 C 
ATOM     34  C28 UNL A   1      45.872  28.309  27.067  1.00  0.00    +0.000 C 
ATOM     46  C35 UNL A   1      45.943  29.628  27.639  1.00  0.00    +0.000 C 
ATOM     47  C36 UNL A   1      47.009  30.510  27.644  1.00  0.00    +0.000 C 
ATOM     48  C37 UNL A   1      46.625  31.656  28.349  1.00  0.00    +0.000 C 
ATOM     49  C38 UNL A   1      45.308  31.505  28.747  1.00  0.00    +0.000 C 
ATOM     50  N5  UNL A   1      44.903  30.254  28.308  1.00  0.00    +0.000 N 
ATOM     51  C39 UNL A   1      44.477  32.431  29.474  1.00  0.00    +0.000 C 
ATOM     63  C46 UNL A   1      43.184  32.212  29.817  1.00  0.00    +0.000 C 
ATOM     64  N6  UNL A   1      42.389  31.105  29.560  1.00  0.00    +0.000 N 
ATOM     65  C47 UNL A   1      41.223  31.363  30.102  1.00  0.00    +0.000 C 
ATOM     66  C48 UNL A   1      39.973  30.528  30.110  1.00  0.00    +0.000 C 
ATOM     78  C55 UNL A   1      39.970  29.340  29.474  1.00  0.00    +0.000 C 
ATOM     79  C56 UNL A   1      38.834  28.426  29.394  1.00  0.00    +0.000 C 
ATOM     80  C57 UNL A   1      39.208  27.323  28.726  1.00  0.00    +0.000 C 
ATOM     81  C58 UNL A   1      40.600  27.469  28.302  1.00  0.00    +0.000 C 
ATOM     82  N7  UNL A   1      40.968  28.701  28.781  1.00  0.00    +0.000 N 
ATOM     83  C59 UNL A   1      41.158  32.660  30.791  1.00  0.00    +0.000 C 
ATOM     84  C60 UNL A   1      42.366  33.152  30.556  1.00  0.00    +0.000 C 
ATOM     85  C61 UNL A   1      44.674  26.225  26.459  1.00  0.00    +0.000 C 
ATOM     86  C62 UNL A   1      43.436  25.755  26.505  1.00  0.00    +0.000 C 
ATOM    119  H28 UNL A   1      47.929  30.351  27.204  1.00  0.00    +0.000 H 
ATOM    120  H29 UNL A   1      47.224  32.476  28.540  1.00  0.00    +0.000 H 
ATOM    121  H30 UNL A   1      44.009  29.867  28.451  1.00  0.00    +0.000 H 
ATOM    122  H31 UNL A   1      37.896  28.600  29.787  1.00  0.00    +0.000 H 
ATOM    123  H32 UNL A   1      38.608  26.504  28.541  1.00  0.00    +0.000 H 
ATOM    124  H33 UNL A   1      41.861  29.090  28.641  1.00  0.00    +0.000 H 
ATOM    125  H34 UNL A   1      40.376  33.077  31.321  1.00  0.00    +0.000 H 
ATOM    126  H35 UNL A   1      42.683  34.086  30.860  1.00  0.00    +0.000 H 
ATOM    127  H36 UNL A   1      45.474  25.721  26.048  1.00  0.00    +0.000 H 
ATOM    128  H37 UNL A   1      43.056  24.882  26.109  1.00  0.00    +0.000 H 
ENDROOT
BRANCH   30   29
ATOM    129  H38 UNL A   1      39.288  26.128  25.896  1.00  0.00    +0.000 H 
ATOM    130  H39 UNL A   1      38.160  24.050  25.365  1.00  0.00    +0.000 H 
ATOM    117  H26 UNL A   1      40.847  21.953  27.832  1.00  0.00    +0.000 H 
ATOM    118  H27 UNL A   1      41.849  24.055  28.521  1.00  0.00    +0.000 H 
ATOM     87  C63 UNL A   1      39.606  25.246  26.326  1.00  0.00    +0.000 C 
ATOM     88  C64 UNL A   1      38.983  24.046  25.989  1.00  0.00    +0.000 C 
ATOM     26  C21 UNL A   1      39.471  22.838  26.494  1.00  0.00    +0.000 C 
ATOM     27  C22 UNL A   1      40.511  22.842  27.428  1.00  0.00    +0.000 C 
ATOM     28  C23 UNL A   1      41.096  24.051  27.814  1.00  0.00    +0.000 C 
ATOM     29  C24 UNL A   1      40.666  25.260  27.247  1.00  0.00    +0.000 C 
BRANCH   26   24
ATOM     25  O2  UNL A   1      39.511  20.509  26.242  1.00  0.00    +0.000 O 
ATOM     24  C20 UNL A   1      38.870  21.543  26.101  1.00  0.00    +0.000 C 
BRANCH   24   23
ATOM    116  H25 UNL A   1      36.903  21.175  26.204  1.00  0.00    +0.000 H 
ATOM     23  N3  UNL A   1      37.598  21.495  25.584  1.00  0.00    +0.000 N 
BRANCH   23   22
ATOM    114  H23 UNL A   1      37.687  22.693  23.904  1.00  0.00    +0.000 H 
ATOM    115  H24 UNL A   1      37.269  21.002  23.617  1.00  0.00    +0.000 H 
ATOM     22  C19 UNL A   1      37.129  21.850  24.254  1.00  0.00    +0.000 C 
BRANCH   22   21
ATOM    113  H22 UNL A   1      35.234  21.803  25.149  1.00  0.00    +0.000 H 
ATOM     21  C18 UNL A   1      35.644  22.205  24.247  1.00  0.00    +0.000 C 
ATOM    112  H21 UNL A   1      35.207  21.790  23.361  1.00  0.00    +0.000 H 
BRANCH   21   20
ATOM     20  C17 UNL A   1      35.338  23.707  24.268  1.00  0.00    +0.000 C 
ATOM    110  H19 UNL A   1      36.185  24.220  23.862  1.00  0.00    +0.000 H 
ATOM    111  H20 UNL A   1      34.441  23.829  23.696  1.00  0.00    +0.000 H 
BRANCH   20   19
ATOM     19  C16 UNL A   1      35.039  24.306  25.649  1.00  0.00    +0.000 C 
ATOM    108  H17 UNL A   1      34.501  23.577  26.216  1.00  0.00    +0.000 H 
ATOM    109  H18 UNL A   1      35.987  24.565  26.070  1.00  0.00    +0.000 H 
BRANCH   19   18
ATOM     18  C15 UNL A   1      34.215  25.599  25.637  1.00  0.00    +0.000 C 
ATOM    107  H16 UNL A   1      34.819  26.356  26.090  1.00  0.00    +0.000 H 
ATOM    106  H15 UNL A   1      33.305  25.423  26.172  1.00  0.00    +0.000 H 
BRANCH   18   17
ATOM     17  C14 UNL A   1      33.859  26.097  24.235  1.00  0.00    +0.000 C 
ATOM    105  H14 UNL A   1      33.880  25.258  23.570  1.00  0.00    +0.000 H 
ATOM    104  H13 UNL A   1      34.571  26.840  23.941  1.00  0.00    +0.000 H 
BRANCH   17   16
ATOM    103  H12 UNL A   1      32.484  27.615  24.469  1.00  0.00    +0.000 H 
ATOM     16  N2  UNL A   1      32.532  26.673  24.186  1.00  0.00    +0.000 N 
BRANCH   16   14
ATOM     14  C13 UNL A   1      31.337  26.133  23.816  1.00  0.00    +0.000 C 
ATOM     15  O1  UNL A   1      30.802  26.617  22.812  1.00  0.00    +0.000 O 
BRANCH   14   12
ATOM     99  H8  UNL A   1      29.669  24.907  24.152  1.00  0.00    +0.000 H 
ATOM     12  C11 UNL A   1      30.644  24.998  24.583  1.00  0.00    +0.000 C 
BRANCH   12   11
ATOM     97  H6  UNL A   1      32.397  21.594  21.913  1.00  0.00    +0.000 H 
ATOM     98  H7  UNL A   1      31.608  23.845  22.264  1.00  0.00    +0.000 H 
ATOM    131  H40 UNL A   1      31.145  23.040  26.351  1.00  0.00    +0.000 H 
ATOM    132  H41 UNL A   1      32.066  20.834  26.024  1.00  0.00    +0.000 H 
ATOM      8  C7  UNL A   1      32.294  20.994  23.932  1.00  0.00    +0.000 C 
ATOM      9  C8  UNL A   1      32.146  21.897  22.867  1.00  0.00    +0.000 C 
ATOM     10  C9  UNL A   1      31.666  23.197  23.065  1.00  0.00    +0.000 C 
ATOM     11  C10 UNL A   1      31.263  23.632  24.329  1.00  0.00    +0.000 C 
ATOM     89  C65 UNL A   1      31.419  22.742  25.402  1.00  0.00    +0.000 C 
ATOM     90  C66 UNL A   1      31.940  21.455  25.209  1.00  0.00    +0.000 C 
BRANCH    8    7
ATOM      3  C3  UNL A   1      34.245  17.736  24.267  1.00  0.00    +0.000 C 
ATOM      4  C4  UNL A   1      33.629  17.027  23.240  1.00  0.00    +0.000 C 
ATOM      5  N1  UNL A   1      32.644  17.521  22.459  1.00  0.00    +0.000 N 
ATOM    133  H42 UNL A   1      34.251  19.611  25.234  1.00  0.00    +0.000 H 
ATOM      7  C6  UNL A   1      32.790  19.619  23.706  1.00  0.00    +0.000 C 
ATOM      6  C5  UNL A   1      32.261  18.796  22.708  1.00  0.00    +0.000 C 
ATOM     91  C67 UNL A   1      33.811  19.050  24.486  1.00  0.00    +0.000 C 
ATOM     95  H4  UNL A   1      33.946  16.062  23.065  1.00  0.00    +0.000 H 
ATOM     96  H5  UNL A   1      31.516  19.192  22.113  1.00  0.00    +0.000 H 
BRANCH    3    2
ATOM      2  C2  UNL A   1      35.339  17.119  25.025  1.00  0.00    +0.000 C 
ATOM     94  H3  UNL A   1      36.111  17.727  25.337  1.00  0.00    +0.000 H 
BRANCH    2    1
ATOM      1  C1  UNL A   1      35.399  15.819  25.338  1.00  0.00    +0.000 C 
ATOM     92  H1  UNL A   1      35.002  15.115  24.695  1.00  0.00    +0.000 H 
ATOM     93  H2  UNL A   1      35.840  15.520  26.222  1.00  0.00    +0.000 H 
ENDBRANCH    2    1
ENDBRANCH    3    2
ENDBRANCH    8    7
ENDBRANCH   12   11
BRANCH   12   13
ATOM    101  H10 UNL A   1      29.441  24.797  26.341  1.00  0.00    +0.000 H 
ATOM    100  H9  UNL A   1      31.139  25.052  26.664  1.00  0.00    +0.000 H 
ATOM     13  C12 UNL A   1      30.317  25.333  26.040  1.00  0.00    +0.000 C 
ATOM    102  H11 UNL A   1      30.141  26.384  26.133  1.00  0.00    +0.000 H 
ENDBRANCH   12   13
ENDBRANCH   14   12
ENDBRANCH   16   14
ENDBRANCH   17   16
ENDBRANCH   18   17
ENDBRANCH   19   18
ENDBRANCH   20   19
ENDBRANCH   21   20
ENDBRANCH   22   21
ENDBRANCH   23   22
ENDBRANCH   24   23
ENDBRANCH   26   24
ENDBRANCH   30   29
BRANCH   34   35
ATOM     35  C29 UNL A   1      47.108  27.742  26.432  1.00  0.00    +0.000 C 
ATOM     36  C30 UNL A   1      48.050  27.019  27.178  1.00  0.00    +0.000 C 
ATOM     37  F1  UNL A   1      47.883  26.854  28.499  1.00  0.00    +0.000 F 
ATOM     38  C31 UNL A   1      49.192  26.496  26.577  1.00  0.00    +0.000 C 
ATOM     39  F2  UNL A   1      50.102  25.851  27.318  1.00  0.00    +0.000 F 
ATOM     40  C32 UNL A   1      49.396  26.655  25.214  1.00  0.00    +0.000 C 
ATOM     41  F3  UNL A   1      50.493  26.147  24.636  1.00  0.00    +0.000 F 
ATOM     42  C33 UNL A   1      48.466  27.347  24.453  1.00  0.00    +0.000 C 
ATOM     43  F4  UNL A   1      48.656  27.490  23.134  1.00  0.00    +0.000 F 
ATOM     44  C34 UNL A   1      47.338  27.896  25.056  1.00  0.00    +0.000 C 
ATOM     45  F5  UNL A   1      46.464  28.572  24.296  1.00  0.00    +0.000 F 
ENDBRANCH   34   35
BRANCH   51   52
ATOM     52  C40 UNL A   1      45.077  33.748  29.865  1.00  0.00    +0.000 C 
ATOM     53  C41 UNL A   1      45.755  33.913  31.082  1.00  0.00    +0.000 C 
ATOM     54  F6  UNL A   1      45.836  32.896  31.953  1.00  0.00    +0.000 F 
ATOM     55  C42 UNL A   1      46.322  35.138  31.424  1.00  0.00    +0.000 C 
ATOM     56  F7  UNL A   1      46.928  35.287  32.609  1.00  0.00    +0.000 F 
ATOM     57  C43 UNL A   1      46.247  36.209  30.545  1.00  0.00    +0.000 C 
ATOM     58  F8  UNL A   1      46.797  37.386  30.873  1.00  0.00    +0.000 F 
ATOM     59  C44 UNL A   1      45.594  36.063  29.330  1.00  0.00    +0.000 C 
ATOM     60  F9  UNL A   1      45.530  37.094  28.475  1.00  0.00    +0.000 F 
ATOM     61  C45 UNL A   1      45.005  34.847  28.997  1.00  0.00    +0.000 C 
ATOM     62  F10 UNL A   1      44.370  34.737  27.819  1.00  0.00    +0.000 F 
ENDBRANCH   51   52
BRANCH   66   67
ATOM     67  C49 UNL A   1      38.740  31.011  30.780  1.00  0.00    +0.000 C 
ATOM     68  C50 UNL A   1      37.722  31.634  30.045  1.00  0.00    +0.000 C 
ATOM     69  F11 UNL A   1      37.869  31.821  28.725  1.00  0.00    +0.000 F 
ATOM     70  C51 UNL A   1      36.568  32.103  30.668  1.00  0.00    +0.000 C 
ATOM     71  F12 UNL A   1      35.629  32.731  29.948  1.00  0.00    +0.000 F 
ATOM     72  C52 UNL A   1      36.397  31.933  32.034  1.00  0.00    +0.000 C 
ATOM     73  F13 UNL A   1      35.285  32.379  32.632  1.00  0.00    +0.000 F 
ATOM     74  C53 UNL A   1      37.384  31.305  32.779  1.00  0.00    +0.000 C 
ATOM     75  F14 UNL A   1      37.216  31.127  34.097  1.00  0.00    +0.000 F 
ATOM     76  C54 UNL A   1      38.550  30.858  32.161  1.00  0.00    +0.000 C 
ATOM     77  F15 UNL A   1      39.492  30.262  32.907  1.00  0.00    +0.000 F 
ENDBRANCH   66   67
TORSDOF 20
ENDMDL
MODEL 3
REMARK VINA RESULT:     -10.6     25.878     28.774
ROOT
ATOM     30  C25 UNL A   1      46.347  50.849  18.179  1.00  0.00    +0.000 C 
ATOM     31  C26 UNL A   1      46.619  52.137  17.454  1.00  0.00    +0.000 C 
ATOM     32  N4  UNL A   1      47.641  52.950  17.562  1.00  0.00    +0.000 N 
ATOM     33  C27 UNL A   1      47.419  53.960  16.636  1.00  0.00    +0.000 C 
ATOM     34  C28 UNL A   1      48.162  55.068  16.400  1.00  0.00    +0.000 C 
ATOM     46  C35 UNL A   1      49.369  55.402  17.111  1.00  0.00    +0.000 C 
ATOM     47  C36 UNL A   1      50.160  56.531  16.986  1.00  0.00    +0.000 C 
ATOM     48  C37 UNL A   1      51.248  56.400  17.856  1.00  0.00    +0.000 C 
ATOM     49  C38 UNL A   1      51.113  55.211  18.552  1.00  0.00    +0.000 C 
ATOM     50  N5  UNL A   1      49.957  54.607  18.082  1.00  0.00    +0.000 N 
ATOM     51  C39 UNL A   1      51.972  54.663  19.570  1.00  0.00    +0.000 C 
ATOM     63  C46 UNL A   1      51.763  53.490  20.217  1.00  0.00    +0.000 C 
ATOM     64  N6  UNL A   1      50.722  52.585  20.066  1.00  0.00    +0.000 N 
ATOM     65  C47 UNL A   1      50.971  51.606  20.903  1.00  0.00    +0.000 C 
ATOM     66  C48 UNL A   1      50.166  50.367  21.182  1.00  0.00    +0.000 C 
ATOM     78  C55 UNL A   1      49.002  50.178  20.531  1.00  0.00    +0.000 C 
ATOM     79  C56 UNL A   1      48.116  49.030  20.700  1.00  0.00    +0.000 C 
ATOM     80  C57 UNL A   1      47.077  49.152  19.858  1.00  0.00    +0.000 C 
ATOM     81  C58 UNL A   1      47.210  50.405  19.113  1.00  0.00    +0.000 C 
ATOM     82  N7  UNL A   1      48.376  50.952  19.586  1.00  0.00    +0.000 N 
ATOM     83  C59 UNL A   1      52.219  51.770  21.662  1.00  0.00    +0.000 C 
ATOM     84  C60 UNL A   1      52.643  52.951  21.233  1.00  0.00    +0.000 C 
ATOM     85  C61 UNL A   1      46.190  53.637  15.943  1.00  0.00    +0.000 C 
ATOM     86  C62 UNL A   1      45.623  52.554  16.456  1.00  0.00    +0.000 C 
ATOM    119  H28 UNL A   1      49.979  57.331  16.359  1.00  0.00    +0.000 H 
ATOM    120  H29 UNL A   1      52.021  57.077  17.961  1.00  0.00    +0.000 H 
ATOM    121  H30 UNL A   1      49.607  53.740  18.391  1.00  0.00    +0.000 H 
ATOM    122  H31 UNL A   1      48.262  48.251  21.361  1.00  0.00    +0.000 H 
ATOM    123  H32 UNL A   1      46.309  48.472  19.752  1.00  0.00    +0.000 H 
ATOM    124  H33 UNL A   1      48.730  51.817  19.277  1.00  0.00    +0.000 H 
ATOM    125  H34 UNL A   1      52.653  51.133  22.349  1.00  0.00    +0.000 H 
ATOM    126  H35 UNL A   1      53.491  53.426  21.580  1.00  0.00    +0.000 H 
ATOM    127  H36 UNL A   1      45.805  54.179  15.155  1.00  0.00    +0.000 H 
ATOM    128  H37 UNL A   1      44.719  52.118  16.216  1.00  0.00    +0.000 H 
ENDROOT
BRANCH   30   29
ATOM    129  H38 UNL A   1      43.865  51.003  19.175  1.00  0.00    +0.000 H 
ATOM    130  H39 UNL A   1      41.946  49.606  18.686  1.00  0.00    +0.000 H 
ATOM    117  H26 UNL A   1      44.177  47.550  15.772  1.00  0.00    +0.000 H 
ATOM    118  H27 UNL A   1      46.154  48.811  16.399  1.00  0.00    +0.000 H 
ATOM     87  C63 UNL A   1      43.940  50.256  18.468  1.00  0.00    +0.000 C 
ATOM     88  C64 UNL A   1      42.825  49.479  18.160  1.00  0.00    +0.000 C 
ATOM     26  C21 UNL A   1      42.894  48.529  17.136  1.00  0.00    +0.000 C 
ATOM     27  C22 UNL A   1      44.114  48.278  16.500  1.00  0.00    +0.000 C 
ATOM     28  C23 UNL A   1      45.249  49.013  16.853  1.00  0.00    +0.000 C 
ATOM     29  C24 UNL A   1      45.164  50.026  17.821  1.00  0.00    +0.000 C 
BRANCH   26   24
ATOM     25  O2  UNL A   1      40.586  48.189  16.934  1.00  0.00    +0.000 O 
ATOM     24  C20 UNL A   1      41.708  47.737  16.742  1.00  0.00    +0.000 C 
BRANCH   24   23
ATOM    116  H25 UNL A   1      42.002  46.510  15.186  1.00  0.00    +0.000 H 
ATOM     23  N3  UNL A   1      41.859  46.501  16.160  1.00  0.00    +0.000 N 
BRANCH   23   22
ATOM    114  H23 UNL A   1      41.691  45.296  17.829  1.00  0.00    +0.000 H 
ATOM    115  H24 UNL A   1      41.041  44.625  16.330  1.00  0.00    +0.000 H 
ATOM     22  C19 UNL A   1      41.838  45.183  16.775  1.00  0.00    +0.000 C 
BRANCH   22   21
ATOM    113  H22 UNL A   1      43.443  44.650  15.538  1.00  0.00    +0.000 H 
ATOM     21  C18 UNL A   1      43.139  44.421  16.537  1.00  0.00    +0.000 C 
ATOM    112  H21 UNL A   1      42.947  43.379  16.692  1.00  0.00    +0.000 H 
BRANCH   21   20
ATOM     20  C17 UNL A   1      44.303  44.829  17.446  1.00  0.00    +0.000 C 
ATOM    110  H19 UNL A   1      44.927  43.972  17.587  1.00  0.00    +0.000 H 
ATOM    111  H20 UNL A   1      44.789  45.643  16.949  1.00  0.00    +0.000 H 
BRANCH   20   19
ATOM     19  C16 UNL A   1      43.911  45.361  18.832  1.00  0.00    +0.000 C 
ATOM    108  H17 UNL A   1      43.011  45.929  18.725  1.00  0.00    +0.000 H 
ATOM    109  H18 UNL A   1      43.805  44.502  19.459  1.00  0.00    +0.000 H 
BRANCH   19   18
ATOM     18  C15 UNL A   1      44.956  46.254  19.511  1.00  0.00    +0.000 C 
ATOM    107  H16 UNL A   1      44.457  47.157  19.791  1.00  0.00    +0.000 H 
ATOM    106  H15 UNL A   1      45.756  46.422  18.820  1.00  0.00    +0.000 H 
BRANCH   18   17
ATOM     17  C14 UNL A   1      45.545  45.658  20.791  1.00  0.00    +0.000 C 
ATOM    105  H14 UNL A   1      44.921  44.843  21.095  1.00  0.00    +0.000 H 
ATOM    104  H13 UNL A   1      45.579  46.419  21.543  1.00  0.00    +0.000 H 
BRANCH   17   16
ATOM    103  H12 UNL A   1      47.563  45.516  21.189  1.00  0.00    +0.000 H 
ATOM     16  N2  UNL A   1      46.882  45.144  20.583  1.00  0.00    +0.000 N 
BRANCH   16   14
ATOM     14  C13 UNL A   1      47.359  44.232  19.691  1.00  0.00    +0.000 C 
ATOM     15  O1  UNL A   1      46.695  43.197  19.553  1.00  0.00    +0.000 O 
BRANCH   14   12
ATOM     99  H8  UNL A   1      48.603  43.727  18.078  1.00  0.00    +0.000 H 
ATOM     12  C11 UNL A   1      48.655  44.423  18.890  1.00  0.00    +0.000 C 
BRANCH   12   11
ATOM     97  H6  UNL A   1      47.297  47.663  15.816  1.00  0.00    +0.000 H 
ATOM     98  H7  UNL A   1      46.988  45.602  17.026  1.00  0.00    +0.000 H 
ATOM    131  H40 UNL A   1      50.496  46.354  19.193  1.00  0.00    +0.000 H 
ATOM    132  H41 UNL A   1      50.730  48.481  18.080  1.00  0.00    +0.000 H 
ATOM      8  C7  UNL A   1      49.051  48.263  16.822  1.00  0.00    +0.000 C 
ATOM      9  C8  UNL A   1      47.979  47.400  16.545  1.00  0.00    +0.000 C 
ATOM     10  C9  UNL A   1      47.810  46.191  17.231  1.00  0.00    +0.000 C 
ATOM     11  C10 UNL A   1      48.737  45.769  18.186  1.00  0.00    +0.000 C 
ATOM     89  C65 UNL A   1      49.804  46.630  18.480  1.00  0.00    +0.000 C 
ATOM     90  C66 UNL A   1      49.948  47.860  17.823  1.00  0.00    +0.000 C 
BRANCH    8    7
ATOM      3  C3  UNL A   1      48.544  51.126  14.357  1.00  0.00    +0.000 C 
ATOM      4  C4  UNL A   1      49.593  51.938  14.774  1.00  0.00    +0.000 C 
ATOM      5  N1  UNL A   1      50.441  51.630  15.780  1.00  0.00    +0.000 N 
ATOM    133  H42 UNL A   1      47.611  49.273  14.738  1.00  0.00    +0.000 H 
ATOM      7  C6  UNL A   1      49.223  49.531  16.080  1.00  0.00    +0.000 C 
ATOM      6  C5  UNL A   1      50.237  50.440  16.394  1.00  0.00    +0.000 C 
ATOM     91  C67 UNL A   1      48.374  49.907  15.026  1.00  0.00    +0.000 C 
ATOM     95  H4  UNL A   1      49.733  52.834  14.283  1.00  0.00    +0.000 H 
ATOM     96  H5  UNL A   1      50.883  50.184  17.158  1.00  0.00    +0.000 H 
BRANCH    3    2
ATOM      2  C2  UNL A   1      47.710  51.537  13.221  1.00  0.00    +0.000 C 
ATOM     94  H3  UNL A   1      46.884  52.122  13.416  1.00  0.00    +0.000 H 
BRANCH    2    1
ATOM      1  C1  UNL A   1      47.953  51.200  11.948  1.00  0.00    +0.000 C 
ATOM     92  H1  UNL A   1      47.239  50.689  11.405  1.00  0.00    +0.000 H 
ATOM     93  H2  UNL A   1      48.854  51.450  11.511  1.00  0.00    +0.000 H 
ENDBRANCH    2    1
ENDBRANCH    3    2
ENDBRANCH    8    7
ENDBRANCH   12   11
BRANCH   12   13
ATOM    101  H10 UNL A   1      49.788  44.095  20.675  1.00  0.00    +0.000 H 
ATOM    100  H9  UNL A   1      50.096  42.930  19.409  1.00  0.00    +0.000 H 
ATOM     13  C12 UNL A   1      49.918  43.963  19.620  1.00  0.00    +0.000 C 
ATOM    102  H11 UNL A   1      50.753  44.544  19.289  1.00  0.00    +0.000 H 
ENDBRANCH   12   13
ENDBRANCH   14   12
ENDBRANCH   16   14
ENDBRANCH   17   16
ENDBRANCH   18   17
ENDBRANCH   19   18
ENDBRANCH   20   19
ENDBRANCH   21   20
ENDBRANCH   22   21
ENDBRANCH   23   22
ENDBRANCH   24   23
ENDBRANCH   26   24
ENDBRANCH   30   29
BRANCH   34   35
ATOM     35  C29 UNL A   1      47.687  56.005  15.328  1.00  0.00    +0.000 C 
ATOM     36  C30 UNL A   1      46.964  57.167  15.637  1.00  0.00    +0.000 C 
ATOM     37  F1  UNL A   1      46.645  57.445  16.909  1.00  0.00    +0.000 F 
ATOM     38  C31 UNL A   1      46.531  58.029  14.633  1.00  0.00    +0.000 C 
ATOM     39  F2  UNL A   1      45.801  59.108  14.947  1.00  0.00    +0.000 F 
ATOM     40  C32 UNL A   1      46.841  57.766  13.307  1.00  0.00    +0.000 C 
ATOM     41  F3  UNL A   1      46.427  58.599  12.342  1.00  0.00    +0.000 F 
ATOM     42  C33 UNL A   1      47.574  56.634  12.981  1.00  0.00    +0.000 C 
ATOM     43  F4  UNL A   1      47.884  56.385  11.701  1.00  0.00    +0.000 F 
ATOM     44  C34 UNL A   1      47.984  55.755  13.980  1.00  0.00    +0.000 C 
ATOM     45  F5  UNL A   1      48.679  54.661  13.631  1.00  0.00    +0.000 F 
ENDBRANCH   34   35
BRANCH   51   52
ATOM     52  C40 UNL A   1      53.181  55.457  19.965  1.00  0.00    +0.000 C 
ATOM     53  C41 UNL A   1      54.433  55.228  19.377  1.00  0.00    +0.000 C 
ATOM     54  F6  UNL A   1      54.587  54.246  18.475  1.00  0.00    +0.000 F 
ATOM     55  C42 UNL A   1      55.544  55.986  19.741  1.00  0.00    +0.000 C 
ATOM     56  F7  UNL A   1      56.740  55.722  19.199  1.00  0.00    +0.000 F 
ATOM     57  C43 UNL A   1      55.416  57.003  20.675  1.00  0.00    +0.000 C 
ATOM     58  F8  UNL A   1      56.484  57.734  21.022  1.00  0.00    +0.000 F 
ATOM     59  C44 UNL A   1      54.183  57.257  21.258  1.00  0.00    +0.000 C 
ATOM     60  F9  UNL A   1      54.056  58.246  22.153  1.00  0.00    +0.000 F 
ATOM     61  C45 UNL A   1      53.077  56.484  20.914  1.00  0.00    +0.000 C 
ATOM     62  F10 UNL A   1      51.899  56.745  21.502  1.00  0.00    +0.000 F 
ENDBRANCH   51   52
BRANCH   66   67
ATOM     67  C49 UNL A   1      50.622  49.374  22.186  1.00  0.00    +0.000 C 
ATOM     68  C50 UNL A   1      50.220  49.472  23.525  1.00  0.00    +0.000 C 
ATOM     69  F11 UNL A   1      49.433  50.486  23.914  1.00  0.00    +0.000 F 
ATOM     70  C51 UNL A   1      50.654  48.553  24.477  1.00  0.00    +0.000 C 
ATOM     71  F12 UNL A   1      50.286  48.694  25.757  1.00  0.00    +0.000 F 
ATOM     72  C52 UNL A   1      51.477  47.502  24.103  1.00  0.00    +0.000 C 
ATOM     73  F13 UNL A   1      51.892  46.614  25.017  1.00  0.00    +0.000 F 
ATOM     74  C53 UNL A   1      51.877  47.376  22.780  1.00  0.00    +0.000 C 
ATOM     75  F14 UNL A   1      52.662  46.354  22.413  1.00  0.00    +0.000 F 
ATOM     76  C54 UNL A   1      51.463  48.309  21.833  1.00  0.00    +0.000 C 
ATOM     77  F15 UNL A   1      51.871  48.168  20.563  1.00  0.00    +0.000 F 
ENDBRANCH   66   67
TORSDOF 20
ENDMDL
MODEL 4
REMARK VINA RESULT:     -10.4      5.757      9.846
ROOT
ATOM     30  C25 UNL A   1      40.966  27.819  28.187  1.00  0.00    +0.000 C 
ATOM     31  C26 UNL A   1      42.450  28.036  28.279  1.00  0.00    +0.000 C 
ATOM     32  N4  UNL A   1      43.110  29.057  28.766  1.00  0.00    +0.000 N 
ATOM     33  C27 UNL A   1      44.454  28.729  28.649  1.00  0.00    +0.000 C 
ATOM     34  C28 UNL A   1      45.538  29.479  28.962  1.00  0.00    +0.000 C 
ATOM     46  C35 UNL A   1      45.474  30.816  29.493  1.00  0.00    +0.000 C 
ATOM     47  C36 UNL A   1      46.514  31.680  29.785  1.00  0.00    +0.000 C 
ATOM     48  C37 UNL A   1      45.971  32.856  30.314  1.00  0.00    +0.000 C 
ATOM     49  C38 UNL A   1      44.591  32.741  30.311  1.00  0.00    +0.000 C 
ATOM     50  N5  UNL A   1      44.300  31.482  29.808  1.00  0.00    +0.000 N 
ATOM     51  C39 UNL A   1      43.609  33.705  30.735  1.00  0.00    +0.000 C 
ATOM     63  C46 UNL A   1      42.266  33.521  30.689  1.00  0.00    +0.000 C 
ATOM     64  N6  UNL A   1      41.553  32.419  30.241  1.00  0.00    +0.000 N 
ATOM     65  C47 UNL A   1      40.287  32.716  30.409  1.00  0.00    +0.000 C 
ATOM     66  C48 UNL A   1      39.067  31.903  30.073  1.00  0.00    +0.000 C 
ATOM     78  C55 UNL A   1      39.220  30.694  29.498  1.00  0.00    +0.000 C 
ATOM     79  C56 UNL A   1      38.133  29.797  29.114  1.00  0.00    +0.000 C 
ATOM     80  C57 UNL A   1      38.657  28.665  28.616  1.00  0.00    +0.000 C 
ATOM     81  C58 UNL A   1      40.116  28.772  28.616  1.00  0.00    +0.000 C 
ATOM     82  N7  UNL A   1      40.360  30.014  29.147  1.00  0.00    +0.000 N 
ATOM     83  C59 UNL A   1      40.056  34.036  31.012  1.00  0.00    +0.000 C 
ATOM     84  C60 UNL A   1      41.293  34.500  31.128  1.00  0.00    +0.000 C 
ATOM     85  C61 UNL A   1      44.516  27.396  28.088  1.00  0.00    +0.000 C 
ATOM     86  C62 UNL A   1      43.307  26.949  27.781  1.00  0.00    +0.000 C 
ATOM    119  H28 UNL A   1      47.518  31.489  29.640  1.00  0.00    +0.000 H 
ATOM    120  H29 UNL A   1      46.508  33.671  30.649  1.00  0.00    +0.000 H 
ATOM    121  H30 UNL A   1      43.393  31.116  29.693  1.00  0.00    +0.000 H 
ATOM    122  H31 UNL A   1      37.126  30.000  29.208  1.00  0.00    +0.000 H 
ATOM    123  H32 UNL A   1      38.117  27.850  28.286  1.00  0.00    +0.000 H 
ATOM    124  H33 UNL A   1      41.264  30.382  29.265  1.00  0.00    +0.000 H 
ATOM    125  H34 UNL A   1      39.165  34.486  31.276  1.00  0.00    +0.000 H 
ATOM    126  H35 UNL A   1      41.532  35.438  31.485  1.00  0.00    +0.000 H 
ATOM    127  H36 UNL A   1      45.388  26.864  27.945  1.00  0.00    +0.000 H 
ATOM    128  H37 UNL A   1      43.037  26.069  27.316  1.00  0.00    +0.000 H 
ENDROOT
BRANCH   30   29
ATOM    129  H38 UNL A   1      39.696  25.914  29.578  1.00  0.00    +0.000 H 
ATOM    130  H39 UNL A   1      38.905  23.754  28.816  1.00  0.00    +0.000 H 
ATOM    117  H26 UNL A   1      40.075  24.702  24.888  1.00  0.00    +0.000 H 
ATOM    118  H27 UNL A   1      41.048  26.780  25.683  1.00  0.00    +0.000 H 
ATOM     87  C63 UNL A   1      39.797  25.650  28.586  1.00  0.00    +0.000 C 
ATOM     88  C64 UNL A   1      39.307  24.424  28.141  1.00  0.00    +0.000 C 
ATOM     26  C21 UNL A   1      39.357  24.101  26.782  1.00  0.00    +0.000 C 
ATOM     27  C22 UNL A   1      40.003  24.957  25.885  1.00  0.00    +0.000 C 
ATOM     28  C23 UNL A   1      40.551  26.159  26.342  1.00  0.00    +0.000 C 
ATOM     29  C24 UNL A   1      40.430  26.527  27.690  1.00  0.00    +0.000 C 
BRANCH   26   24
ATOM     25  O2  UNL A   1      37.728  22.853  25.653  1.00  0.00    +0.000 O 
ATOM     24  C20 UNL A   1      38.783  22.835  26.272  1.00  0.00    +0.000 C 
BRANCH   24   23
ATOM    116  H25 UNL A   1      38.980  21.023  27.105  1.00  0.00    +0.000 H 
ATOM     23  N3  UNL A   1      39.431  21.642  26.487  1.00  0.00    +0.000 N 
BRANCH   23   22
ATOM    114  H23 UNL A   1      40.653  21.256  24.867  1.00  0.00    +0.000 H 
ATOM    115  H24 UNL A   1      41.478  21.750  26.349  1.00  0.00    +0.000 H 
ATOM     22  C19 UNL A   1      40.688  21.162  25.933  1.00  0.00    +0.000 C 
BRANCH   22   21
ATOM    113  H22 UNL A   1      40.955  19.162  25.365  1.00  0.00    +0.000 H 
ATOM     21  C18 UNL A   1      40.949  19.700  26.289  1.00  0.00    +0.000 C 
ATOM    112  H21 UNL A   1      40.179  19.379  26.961  1.00  0.00    +0.000 H 
BRANCH   21   20
ATOM     20  C17 UNL A   1      42.302  19.429  26.954  1.00  0.00    +0.000 C 
ATOM    110  H19 UNL A   1      42.835  20.355  27.004  1.00  0.00    +0.000 H 
ATOM    111  H20 UNL A   1      42.077  19.005  27.911  1.00  0.00    +0.000 H 
BRANCH   20   19
ATOM     19  C16 UNL A   1      43.200  18.406  26.244  1.00  0.00    +0.000 C 
ATOM    108  H17 UNL A   1      44.015  18.173  26.897  1.00  0.00    +0.000 H 
ATOM    109  H18 UNL A   1      42.574  17.567  26.023  1.00  0.00    +0.000 H 
BRANCH   19   18
ATOM     18  C15 UNL A   1      43.783  18.864  24.903  1.00  0.00    +0.000 C 
ATOM    107  H16 UNL A   1      43.313  19.794  24.662  1.00  0.00    +0.000 H 
ATOM    106  H15 UNL A   1      43.591  18.104  24.175  1.00  0.00    +0.000 H 
BRANCH   18   17
ATOM     17  C14 UNL A   1      45.290  19.126  24.937  1.00  0.00    +0.000 C 
ATOM    105  H14 UNL A   1      45.637  19.193  23.927  1.00  0.00    +0.000 H 
ATOM    104  H13 UNL A   1      45.770  18.323  25.458  1.00  0.00    +0.000 H 
BRANCH   17   16
ATOM    103  H12 UNL A   1      46.080  20.269  26.460  1.00  0.00    +0.000 H 
ATOM     16  N2  UNL A   1      45.607  20.372  25.603  1.00  0.00    +0.000 N 
BRANCH   16   14
ATOM     14  C13 UNL A   1      45.362  21.663  25.244  1.00  0.00    +0.000 C 
ATOM     15  O1  UNL A   1      46.241  22.227  24.581  1.00  0.00    +0.000 O 
BRANCH   14   12
ATOM     99  H8  UNL A   1      43.318  21.687  25.719  1.00  0.00    +0.000 H 
ATOM     12  C11 UNL A   1      44.088  22.426  25.635  1.00  0.00    +0.000 C 
BRANCH   12   11
ATOM     97  H6  UNL A   1      46.231  24.317  29.326  1.00  0.00    +0.000 H 
ATOM     98  H7  UNL A   1      46.180  23.569  27.035  1.00  0.00    +0.000 H 
ATOM    131  H40 UNL A   1      42.098  22.696  27.418  1.00  0.00    +0.000 H 
ATOM    132  H41 UNL A   1      42.118  23.574  29.664  1.00  0.00    +0.000 H 
ATOM      8  C7  UNL A   1      44.183  24.004  29.720  1.00  0.00    +0.000 C 
ATOM      9  C8  UNL A   1      45.340  23.985  28.924  1.00  0.00    +0.000 C 
ATOM     10  C9  UNL A   1      45.317  23.530  27.601  1.00  0.00    +0.000 C 
ATOM     11  C10 UNL A   1      44.147  23.023  27.033  1.00  0.00    +0.000 C 
ATOM     89  C65 UNL A   1      42.982  23.049  27.815  1.00  0.00    +0.000 C 
ATOM     90  C66 UNL A   1      42.997  23.545  29.126  1.00  0.00    +0.000 C 
BRANCH    8    7
ATOM      3  C3  UNL A   1      44.156  26.256  32.795  1.00  0.00    +0.000 C 
ATOM      4  C4  UNL A   1      44.271  25.268  33.768  1.00  0.00    +0.000 C 
ATOM      5  N1  UNL A   1      44.356  23.946  33.503  1.00  0.00    +0.000 N 
ATOM    133  H42 UNL A   1      44.065  26.543  30.707  1.00  0.00    +0.000 H 
ATOM      7  C6  UNL A   1      44.225  24.476  31.120  1.00  0.00    +0.000 C 
ATOM      6  C5  UNL A   1      44.338  23.591  32.196  1.00  0.00    +0.000 C 
ATOM     91  C67 UNL A   1      44.140  25.838  31.458  1.00  0.00    +0.000 C 
ATOM     95  H4  UNL A   1      44.292  25.565  34.755  1.00  0.00    +0.000 H 
ATOM     96  H5  UNL A   1      44.413  22.586  31.977  1.00  0.00    +0.000 H 
BRANCH    3    2
ATOM      2  C2  UNL A   1      44.117  27.668  33.191  1.00  0.00    +0.000 C 
ATOM     94  H3  UNL A   1      44.098  27.886  34.198  1.00  0.00    +0.000 H 
BRANCH    2    1
ATOM      1  C1  UNL A   1      44.106  28.692  32.328  1.00  0.00    +0.000 C 
ATOM     92  H1  UNL A   1      43.667  28.579  31.400  1.00  0.00    +0.000 H 
ATOM     93  H2  UNL A   1      44.535  29.593  32.590  1.00  0.00    +0.000 H 
ENDBRANCH    2    1
ENDBRANCH    3    2
ENDBRANCH    8    7
ENDBRANCH   12   11
BRANCH   12   13
ATOM    101  H10 UNL A   1      42.577  23.707  24.825  1.00  0.00    +0.000 H 
ATOM    100  H9  UNL A   1      44.207  24.154  24.380  1.00  0.00    +0.000 H 
ATOM     13  C12 UNL A   1      43.537  23.334  24.534  1.00  0.00    +0.000 C 
ATOM    102  H11 UNL A   1      43.442  22.775  23.626  1.00  0.00    +0.000 H 
ENDBRANCH   12   13
ENDBRANCH   14   12
ENDBRANCH   16   14
ENDBRANCH   17   16
ENDBRANCH   18   17
ENDBRANCH   19   18
ENDBRANCH   20   19
ENDBRANCH   21   20
ENDBRANCH   22   21
ENDBRANCH   23   22
ENDBRANCH   24   23
ENDBRANCH   26   24
ENDBRANCH   30   29
BRANCH   34   35
ATOM     35  C29 UNL A   1      46.891  28.870  28.734  1.00  0.00    +0.000 C 
ATOM     36  C30 UNL A   1      47.526  28.104  29.724  1.00  0.00    +0.000 C 
ATOM     37  F1  UNL A   1      46.947  27.935  30.922  1.00  0.00    +0.000 F 
ATOM     38  C31 UNL A   1      48.779  27.541  29.500  1.00  0.00    +0.000 C 
ATOM     39  F2  UNL A   1      49.388  26.855  30.476  1.00  0.00    +0.000 F 
ATOM     40  C32 UNL A   1      49.406  27.704  28.273  1.00  0.00    +0.000 C 
ATOM     41  F3  UNL A   1      50.611  27.157  28.057  1.00  0.00    +0.000 F 
ATOM     42  C33 UNL A   1      48.787  28.438  27.273  1.00  0.00    +0.000 C 
ATOM     43  F4  UNL A   1      49.386  28.585  26.083  1.00  0.00    +0.000 F 
ATOM     44  C34 UNL A   1      47.545  29.026  27.504  1.00  0.00    +0.000 C 
ATOM     45  F5  UNL A   1      46.978  29.742  26.521  1.00  0.00    +0.000 F 
ENDBRANCH   34   35
BRANCH   51   52
ATOM     52  C40 UNL A   1      44.102  35.025  31.248  1.00  0.00    +0.000 C 
ATOM     53  C41 UNL A   1      44.198  36.147  30.412  1.00  0.00    +0.000 C 
ATOM     54  F6  UNL A   1      43.894  36.047  29.109  1.00  0.00    +0.000 F 
ATOM     55  C42 UNL A   1      44.641  37.371  30.907  1.00  0.00    +0.000 C 
ATOM     56  F7  UNL A   1      44.766  38.420  30.082  1.00  0.00    +0.000 F 
ATOM     57  C43 UNL A   1      44.969  37.502  32.248  1.00  0.00    +0.000 C 
ATOM     58  F8  UNL A   1      45.391  38.682  32.724  1.00  0.00    +0.000 F 
ATOM     59  C44 UNL A   1      44.866  36.409  33.095  1.00  0.00    +0.000 C 
ATOM     60  F9  UNL A   1      45.173  36.537  34.394  1.00  0.00    +0.000 F 
ATOM     61  C45 UNL A   1      44.448  35.178  32.598  1.00  0.00    +0.000 C 
ATOM     62  F10 UNL A   1      44.369  34.134  33.439  1.00  0.00    +0.000 F 
ENDBRANCH   51   52
BRANCH   66   67
ATOM     67  C49 UNL A   1      37.705  32.429  30.337  1.00  0.00    +0.000 C 
ATOM     68  C50 UNL A   1      37.049  32.148  31.543  1.00  0.00    +0.000 C 
ATOM     69  F11 UNL A   1      37.645  31.374  32.463  1.00  0.00    +0.000 F 
ATOM     70  C51 UNL A   1      35.765  32.626  31.794  1.00  0.00    +0.000 C 
ATOM     71  F12 UNL A   1      35.147  32.308  32.939  1.00  0.00    +0.000 F 
ATOM     72  C52 UNL A   1      35.124  33.419  30.854  1.00  0.00    +0.000 C 
ATOM     73  F13 UNL A   1      33.891  33.884  31.097  1.00  0.00    +0.000 F 
ATOM     74  C53 UNL A   1      35.759  33.723  29.659  1.00  0.00    +0.000 C 
ATOM     75  F14 UNL A   1      35.146  34.499  28.755  1.00  0.00    +0.000 F 
ATOM     76  C54 UNL A   1      37.033  33.224  29.398  1.00  0.00    +0.000 C 
ATOM     77  F15 UNL A   1      37.620  33.527  28.230  1.00  0.00    +0.000 F 
ENDBRANCH   66   67
TORSDOF 20
ENDMDL
MODEL 5
REMARK VINA RESULT:     -10.4      5.837     10.028
ROOT
ATOM     30  C25 UNL A   1      40.986  27.787  28.178  1.00  0.00    +0.000 C 
ATOM     31  C26 UNL A   1      42.472  28.001  28.248  1.00  0.00    +0.000 C 
ATOM     32  N4  UNL A   1      43.142  29.015  28.737  1.00  0.00    +0.000 N 
ATOM     33  C27 UNL A   1      44.483  28.687  28.592  1.00  0.00    +0.000 C 
ATOM     34  C28 UNL A   1      45.574  29.432  28.897  1.00  0.00    +0.000 C 
ATOM     46  C35 UNL A   1      45.520  30.761  29.447  1.00  0.00    +0.000 C 
ATOM     47  C36 UNL A   1      46.566  31.620  29.733  1.00  0.00    +0.000 C 
ATOM     48  C37 UNL A   1      46.034  32.790  30.287  1.00  0.00    +0.000 C 
ATOM     49  C38 UNL A   1      44.654  32.676  30.306  1.00  0.00    +0.000 C 
ATOM     50  N5  UNL A   1      44.352  31.425  29.791  1.00  0.00    +0.000 N 
ATOM     51  C39 UNL A   1      43.680  33.636  30.760  1.00  0.00    +0.000 C 
ATOM     63  C46 UNL A   1      42.336  33.453  30.735  1.00  0.00    +0.000 C 
ATOM     64  N6  UNL A   1      41.614  32.358  30.283  1.00  0.00    +0.000 N 
ATOM     65  C47 UNL A   1      40.352  32.654  30.477  1.00  0.00    +0.000 C 
ATOM     66  C48 UNL A   1      39.125  31.847  30.151  1.00  0.00    +0.000 C 
ATOM     78  C55 UNL A   1      39.266  30.646  29.557  1.00  0.00    +0.000 C 
ATOM     79  C56 UNL A   1      38.173  29.755  29.180  1.00  0.00    +0.000 C 
ATOM     80  C57 UNL A   1      38.686  28.630  28.658  1.00  0.00    +0.000 C 
ATOM     81  C58 UNL A   1      40.145  28.736  28.634  1.00  0.00    +0.000 C 
ATOM     82  N7  UNL A   1      40.400  29.970  29.178  1.00  0.00    +0.000 N 
ATOM     83  C59 UNL A   1      40.133  33.967  31.102  1.00  0.00    +0.000 C 
ATOM     84  C60 UNL A   1      41.372  34.427  31.203  1.00  0.00    +0.000 C 
ATOM     85  C61 UNL A   1      44.534  27.362  28.013  1.00  0.00    +0.000 C 
ATOM     86  C62 UNL A   1      43.319  26.920  27.721  1.00  0.00    +0.000 C 
ATOM    119  H28 UNL A   1      47.568  31.430  29.568  1.00  0.00    +0.000 H 
ATOM    120  H29 UNL A   1      46.578  33.600  30.624  1.00  0.00    +0.000 H 
ATOM    121  H30 UNL A   1      43.443  31.061  29.687  1.00  0.00    +0.000 H 
ATOM    122  H31 UNL A   1      37.168  29.958  29.294  1.00  0.00    +0.000 H 
ATOM    123  H32 UNL A   1      38.139  27.820  28.327  1.00  0.00    +0.000 H 
ATOM    124  H33 UNL A   1      41.306  30.336  29.286  1.00  0.00    +0.000 H 
ATOM    125  H34 UNL A   1      39.247  34.413  31.387  1.00  0.00    +0.000 H 
ATOM    126  H35 UNL A   1      41.618  35.360  31.569  1.00  0.00    +0.000 H 
ATOM    127  H36 UNL A   1      45.403  26.831  27.847  1.00  0.00    +0.000 H 
ATOM    128  H37 UNL A   1      43.041  26.047  27.248  1.00  0.00    +0.000 H 
ENDROOT
BRANCH   30   29
ATOM    129  H38 UNL A   1      39.656  25.907  29.546  1.00  0.00    +0.000 H 
ATOM    130  H39 UNL A   1      38.847  23.757  28.773  1.00  0.00    +0.000 H 
ATOM    117  H26 UNL A   1      40.117  24.676  24.868  1.00  0.00    +0.000 H 
ATOM    118  H27 UNL A   1      41.106  26.740  25.679  1.00  0.00    +0.000 H 
ATOM     87  C63 UNL A   1      39.775  25.638  28.557  1.00  0.00    +0.000 C 
ATOM     88  C64 UNL A   1      39.274  24.419  28.105  1.00  0.00    +0.000 C 
ATOM     26  C21 UNL A   1      39.348  24.091  26.748  1.00  0.00    +0.000 C 
ATOM     27  C22 UNL A   1      40.027  24.935  25.863  1.00  0.00    +0.000 C 
ATOM     28  C23 UNL A   1      40.585  26.129  26.328  1.00  0.00    +0.000 C 
ATOM     29  C24 UNL A   1      40.440  26.502  27.673  1.00  0.00    +0.000 C 
BRANCH   26   24
ATOM     25  O2  UNL A   1      37.702  22.862  25.623  1.00  0.00    +0.000 O 
ATOM     24  C20 UNL A   1      38.765  22.833  26.230  1.00  0.00    +0.000 C 
BRANCH   24   23
ATOM    116  H25 UNL A   1      38.919  20.971  26.954  1.00  0.00    +0.000 H 
ATOM     23  N3  UNL A   1      39.412  21.636  26.422  1.00  0.00    +0.000 N 
BRANCH   23   22
ATOM    114  H23 UNL A   1      40.816  21.463  24.917  1.00  0.00    +0.000 H 
ATOM    115  H24 UNL A   1      41.462  21.707  26.543  1.00  0.00    +0.000 H 
ATOM     22  C19 UNL A   1      40.721  21.209  25.952  1.00  0.00    +0.000 C 
BRANCH   22   21
ATOM    113  H22 UNL A   1      41.046  19.312  25.123  1.00  0.00    +0.000 H 
ATOM     21  C18 UNL A   1      40.923  19.704  26.111  1.00  0.00    +0.000 C 
ATOM    112  H21 UNL A   1      40.070  19.307  26.622  1.00  0.00    +0.000 H 
BRANCH   21   20
ATOM     20  C17 UNL A   1      42.177  19.300  26.893  1.00  0.00    +0.000 C 
ATOM    110  H19 UNL A   1      42.705  20.193  27.154  1.00  0.00    +0.000 H 
ATOM    111  H20 UNL A   1      41.827  18.741  27.737  1.00  0.00    +0.000 H 
BRANCH   20   19
ATOM     19  C16 UNL A   1      43.153  18.373  26.155  1.00  0.00    +0.000 C 
ATOM    108  H17 UNL A   1      43.901  18.059  26.852  1.00  0.00    +0.000 H 
ATOM    109  H18 UNL A   1      42.562  17.570  25.767  1.00  0.00    +0.000 H 
BRANCH   19   18
ATOM     18  C15 UNL A   1      43.863  18.997  24.948  1.00  0.00    +0.000 C 
ATOM    107  H16 UNL A   1      43.453  19.977  24.820  1.00  0.00    +0.000 H 
ATOM    106  H15 UNL A   1      43.699  18.367  24.098  1.00  0.00    +0.000 H 
BRANCH   18   17
ATOM     17  C14 UNL A   1      45.372  19.168  25.134  1.00  0.00    +0.000 C 
ATOM    105  H14 UNL A   1      45.838  19.057  24.178  1.00  0.00    +0.000 H 
ATOM    104  H13 UNL A   1      45.722  18.428  25.824  1.00  0.00    +0.000 H 
BRANCH   17   16
ATOM    103  H12 UNL A   1      46.269  20.474  26.454  1.00  0.00    +0.000 H 
ATOM     16  N2  UNL A   1      45.708  20.481  25.645  1.00  0.00    +0.000 N 
BRANCH   16   14
ATOM     14  C13 UNL A   1      45.378  21.724  25.197  1.00  0.00    +0.000 C 
ATOM     15  O1  UNL A   1      46.176  22.258  24.417  1.00  0.00    +0.000 O 
BRANCH   14   12
ATOM     99  H8  UNL A   1      43.340  21.727  25.695  1.00  0.00    +0.000 H 
ATOM     12  C11 UNL A   1      44.105  22.471  25.623  1.00  0.00    +0.000 C 
BRANCH   12   11
ATOM     97  H6  UNL A   1      46.276  24.313  29.322  1.00  0.00    +0.000 H 
ATOM     98  H7  UNL A   1      46.196  23.628  27.012  1.00  0.00    +0.000 H 
ATOM    131  H40 UNL A   1      42.146  22.642  27.450  1.00  0.00    +0.000 H 
ATOM    132  H41 UNL A   1      42.190  23.457  29.720  1.00  0.00    +0.000 H 
ATOM      8  C7  UNL A   1      44.244  23.938  29.747  1.00  0.00    +0.000 C 
ATOM      9  C8  UNL A   1      45.385  23.971  28.929  1.00  0.00    +0.000 C 
ATOM     10  C9  UNL A   1      45.347  23.551  27.593  1.00  0.00    +0.000 C 
ATOM     11  C10 UNL A   1      44.178  23.031  27.035  1.00  0.00    +0.000 C 
ATOM     89  C65 UNL A   1      43.029  23.006  27.840  1.00  0.00    +0.000 C 
ATOM     90  C66 UNL A   1      43.059  23.466  29.164  1.00  0.00    +0.000 C 
BRANCH    8    7
ATOM      3  C3  UNL A   1      44.263  23.905  33.559  1.00  0.00    +0.000 C 
ATOM      4  C4  UNL A   1      44.467  25.264  33.770  1.00  0.00    +0.000 C 
ATOM      5  N1  UNL A   1      44.595  26.177  32.782  1.00  0.00    +0.000 N 
ATOM    133  H42 UNL A   1      44.017  22.469  32.033  1.00  0.00    +0.000 H 
ATOM      7  C6  UNL A   1      44.303  24.372  31.159  1.00  0.00    +0.000 C 
ATOM      6  C5  UNL A   1      44.504  25.709  31.514  1.00  0.00    +0.000 C 
ATOM     91  C67 UNL A   1      44.177  23.470  32.229  1.00  0.00    +0.000 C 
ATOM     95  H4  UNL A   1      44.524  25.597  34.744  1.00  0.00    +0.000 H 
ATOM     96  H5  UNL A   1      44.590  26.395  30.748  1.00  0.00    +0.000 H 
BRANCH    3    2
ATOM      2  C2  UNL A   1      44.090  23.006  34.705  1.00  0.00    +0.000 C 
ATOM     94  H3  UNL A   1      43.388  23.262  35.416  1.00  0.00    +0.000 H 
BRANCH    2    1
ATOM      1  C1  UNL A   1      44.784  21.876  34.888  1.00  0.00    +0.000 C 
ATOM     92  H1  UNL A   1      45.750  21.801  34.531  1.00  0.00    +0.000 H 
ATOM     93  H2  UNL A   1      44.354  21.081  35.386  1.00  0.00    +0.000 H 
ENDBRANCH    2    1
ENDBRANCH    3    2
ENDBRANCH    8    7
ENDBRANCH   12   11
BRANCH   12   13
ATOM    101  H10 UNL A   1      43.525  24.409  24.925  1.00  0.00    +0.000 H 
ATOM    100  H9  UNL A   1      44.151  23.358  23.677  1.00  0.00    +0.000 H 
ATOM     13  C12 UNL A   1      43.538  23.406  24.552  1.00  0.00    +0.000 C 
ATOM    102  H11 UNL A   1      42.542  23.104  24.307  1.00  0.00    +0.000 H 
ENDBRANCH   12   13
ENDBRANCH   14   12
ENDBRANCH   16   14
ENDBRANCH   17   16
ENDBRANCH   18   17
ENDBRANCH   19   18
ENDBRANCH   20   19
ENDBRANCH   21   20
ENDBRANCH   22   21
ENDBRANCH   23   22
ENDBRANCH   24   23
ENDBRANCH   26   24
ENDBRANCH   30   29
BRANCH   34   35
ATOM     35  C29 UNL A   1      46.921  28.824  28.638  1.00  0.00    +0.000 C 
ATOM     36  C30 UNL A   1      47.585  29.008  27.416  1.00  0.00    +0.000 C 
ATOM     37  F1  UNL A   1      47.003  29.704  26.429  1.00  0.00    +0.000 F 
ATOM     38  C31 UNL A   1      48.837  28.441  27.188  1.00  0.00    +0.000 C 
ATOM     39  F2  UNL A   1      49.431  28.588  25.997  1.00  0.00    +0.000 F 
ATOM     40  C32 UNL A   1      49.462  27.710  28.188  1.00  0.00    +0.000 C 
ATOM     41  F3  UNL A   1      50.669  27.169  27.969  1.00  0.00    +0.000 F 
ATOM     42  C33 UNL A   1      48.834  27.536  29.412  1.00  0.00    +0.000 C 
ATOM     43  F4  UNL A   1      49.443  26.840  30.382  1.00  0.00    +0.000 F 
ATOM     44  C34 UNL A   1      47.570  28.077  29.632  1.00  0.00    +0.000 C 
ATOM     45  F5  UNL A   1      46.981  27.878  30.821  1.00  0.00    +0.000 F 
ENDBRANCH   34   35
BRANCH   51   52
ATOM     52  C40 UNL A   1      44.184  34.948  31.282  1.00  0.00    +0.000 C 
ATOM     53  C41 UNL A   1      44.556  35.109  32.624  1.00  0.00    +0.000 C 
ATOM     54  F6  UNL A   1      44.420  34.093  33.490  1.00  0.00    +0.000 F 
ATOM     55  C42 UNL A   1      45.039  36.329  33.090  1.00  0.00    +0.000 C 
ATOM     56  F7  UNL A   1      45.349  36.475  34.386  1.00  0.00    +0.000 F 
ATOM     57  C43 UNL A   1      45.185  37.399  32.219  1.00  0.00    +0.000 C 
ATOM     58  F8  UNL A   1      45.654  38.571  32.668  1.00  0.00    +0.000 F 
ATOM     59  C44 UNL A   1      44.836  37.256  30.884  1.00  0.00    +0.000 C 
ATOM     60  F9  UNL A   1      44.986  38.286  30.039  1.00  0.00    +0.000 F 
ATOM     61  C45 UNL A   1      44.330  36.046  30.421  1.00  0.00    +0.000 C 
ATOM     62  F10 UNL A   1      43.990  35.940  29.127  1.00  0.00    +0.000 F 
ENDBRANCH   51   52
BRANCH   66   67
ATOM     67  C49 UNL A   1      37.768  32.372  30.446  1.00  0.00    +0.000 C 
ATOM     68  C50 UNL A   1      37.088  33.163  29.511  1.00  0.00    +0.000 C 
ATOM     69  F11 UNL A   1      37.674  33.473  28.345  1.00  0.00    +0.000 F 
ATOM     70  C51 UNL A   1      35.820  33.672  29.784  1.00  0.00    +0.000 C 
ATOM     71  F12 UNL A   1      35.209  34.459  28.889  1.00  0.00    +0.000 F 
ATOM     72  C52 UNL A   1      35.198  33.375  30.987  1.00  0.00    +0.000 C 
ATOM     73  F13 UNL A   1      33.976  33.859  31.249  1.00  0.00    +0.000 F 
ATOM     74  C53 UNL A   1      35.846  32.581  31.922  1.00  0.00    +0.000 C 
ATOM     75  F14 UNL A   1      35.241  32.282  33.080  1.00  0.00    +0.000 F 
ATOM     76  C54 UNL A   1      37.124  32.093  31.659  1.00  0.00    +0.000 C 
ATOM     77  F15 UNL A   1      37.731  31.335  32.584  1.00  0.00    +0.000 F 
ENDBRANCH   66   67
TORSDOF 20
ENDMDL
MODEL 6
REMARK VINA RESULT:     -10.4     25.899     28.750
ROOT
ATOM     30  C25 UNL A   1      46.413  50.837  18.152  1.00  0.00    +0.000 C 
ATOM     31  C26 UNL A   1      46.683  52.143  17.459  1.00  0.00    +0.000 C 
ATOM     32  N4  UNL A   1      47.715  52.942  17.567  1.00  0.00    +0.000 N 
ATOM     33  C27 UNL A   1      47.483  53.981  16.677  1.00  0.00    +0.000 C 
ATOM     34  C28 UNL A   1      48.233  55.089  16.457  1.00  0.00    +0.000 C 
ATOM     46  C35 UNL A   1      49.458  55.390  17.150  1.00  0.00    +0.000 C 
ATOM     47  C36 UNL A   1      50.258  56.514  17.041  1.00  0.00    +0.000 C 
ATOM     48  C37 UNL A   1      51.363  56.347  17.882  1.00  0.00    +0.000 C 
ATOM     49  C38 UNL A   1      51.231  55.139  18.546  1.00  0.00    +0.000 C 
ATOM     50  N5  UNL A   1      50.059  54.560  18.084  1.00  0.00    +0.000 N 
ATOM     51  C39 UNL A   1      52.107  54.553  19.528  1.00  0.00    +0.000 C 
ATOM     63  C46 UNL A   1      51.899  53.364  20.146  1.00  0.00    +0.000 C 
ATOM     64  N6  UNL A   1      50.847  52.474  19.991  1.00  0.00    +0.000 N 
ATOM     65  C47 UNL A   1      51.104  51.469  20.793  1.00  0.00    +0.000 C 
ATOM     66  C48 UNL A   1      50.292  50.230  21.054  1.00  0.00    +0.000 C 
ATOM     78  C55 UNL A   1      49.112  50.071  20.424  1.00  0.00    +0.000 C 
ATOM     79  C56 UNL A   1      48.218  48.927  20.579  1.00  0.00    +0.000 C 
ATOM     80  C57 UNL A   1      47.163  49.084  19.764  1.00  0.00    +0.000 C 
ATOM     81  C58 UNL A   1      47.292  50.357  19.054  1.00  0.00    +0.000 C 
ATOM     82  N7  UNL A   1      48.474  50.879  19.516  1.00  0.00    +0.000 N 
ATOM     83  C59 UNL A   1      52.369  51.598  21.529  1.00  0.00    +0.000 C 
ATOM     84  C60 UNL A   1      52.796  52.787  21.126  1.00  0.00    +0.000 C 
ATOM     85  C61 UNL A   1      46.236  53.690  16.003  1.00  0.00    +0.000 C 
ATOM     86  C62 UNL A   1      45.669  52.599  16.496  1.00  0.00    +0.000 C 
ATOM    119  H28 UNL A   1      50.071  57.334  16.442  1.00  0.00    +0.000 H 
ATOM    120  H29 UNL A   1      52.145  57.013  17.989  1.00  0.00    +0.000 H 
ATOM    121  H30 UNL A   1      49.707  53.689  18.376  1.00  0.00    +0.000 H 
ATOM    122  H31 UNL A   1      48.371  48.128  21.214  1.00  0.00    +0.000 H 
ATOM    123  H32 UNL A   1      46.385  48.414  19.656  1.00  0.00    +0.000 H 
ATOM    124  H33 UNL A   1      48.830  51.748  19.225  1.00  0.00    +0.000 H 
ATOM    125  H34 UNL A   1      52.811  50.936  22.187  1.00  0.00    +0.000 H 
ATOM    126  H35 UNL A   1      53.656  53.243  21.467  1.00  0.00    +0.000 H 
ATOM    127  H36 UNL A   1      45.840  54.259  15.239  1.00  0.00    +0.000 H 
ATOM    128  H37 UNL A   1      44.756  52.178  16.263  1.00  0.00    +0.000 H 
ENDROOT
BRANCH   30   29
ATOM    129  H38 UNL A   1      43.967  50.956  19.236  1.00  0.00    +0.000 H 
ATOM    130  H39 UNL A   1      42.024  49.591  18.748  1.00  0.00    +0.000 H 
ATOM    117  H26 UNL A   1      44.145  47.660  15.671  1.00  0.00    +0.000 H 
ATOM    118  H27 UNL A   1      46.149  48.883  16.289  1.00  0.00    +0.000 H 
ATOM     87  C63 UNL A   1      44.013  50.241  18.493  1.00  0.00    +0.000 C 
ATOM     88  C64 UNL A   1      42.884  49.485  18.188  1.00  0.00    +0.000 C 
ATOM     26  C21 UNL A   1      42.914  48.582  17.121  1.00  0.00    +0.000 C 
ATOM     27  C22 UNL A   1      44.111  48.354  16.434  1.00  0.00    +0.000 C 
ATOM     28  C23 UNL A   1      45.261  49.068  16.782  1.00  0.00    +0.000 C 
ATOM     29  C24 UNL A   1      45.215  50.036  17.796  1.00  0.00    +0.000 C 
BRANCH   26   24
ATOM     25  O2  UNL A   1      40.599  48.289  16.923  1.00  0.00    +0.000 O 
ATOM     24  C20 UNL A   1      41.711  47.814  16.731  1.00  0.00    +0.000 C 
BRANCH   24   23
ATOM    116  H25 UNL A   1      41.975  46.575  15.178  1.00  0.00    +0.000 H 
ATOM     23  N3  UNL A   1      41.835  46.573  16.152  1.00  0.00    +0.000 N 
BRANCH   23   22
ATOM    114  H23 UNL A   1      41.654  45.377  17.826  1.00  0.00    +0.000 H 
ATOM    115  H24 UNL A   1      40.976  44.716  16.335  1.00  0.00    +0.000 H 
ATOM     22  C19 UNL A   1      41.789  45.258  16.771  1.00  0.00    +0.000 C 
BRANCH   22   21
ATOM    113  H22 UNL A   1      43.339  44.637  15.504  1.00  0.00    +0.000 H 
ATOM     21  C18 UNL A   1      43.071  44.465  16.525  1.00  0.00    +0.000 C 
ATOM    112  H21 UNL A   1      42.872  43.436  16.743  1.00  0.00    +0.000 H 
BRANCH   21   20
ATOM     20  C17 UNL A   1      44.274  44.905  17.366  1.00  0.00    +0.000 C 
ATOM    110  H19 UNL A   1      44.937  44.070  17.453  1.00  0.00    +0.000 H 
ATOM    111  H20 UNL A   1      44.697  45.744  16.853  1.00  0.00    +0.000 H 
BRANCH   20   19
ATOM     19  C16 UNL A   1      43.951  45.401  18.783  1.00  0.00    +0.000 C 
ATOM    108  H17 UNL A   1      43.029  45.941  18.741  1.00  0.00    +0.000 H 
ATOM    109  H18 UNL A   1      43.910  44.528  19.399  1.00  0.00    +0.000 H 
BRANCH   19   18
ATOM     18  C15 UNL A   1      45.008  46.315  19.413  1.00  0.00    +0.000 C 
ATOM    107  H16 UNL A   1      44.522  47.241  19.638  1.00  0.00    +0.000 H 
ATOM    106  H15 UNL A   1      45.813  46.429  18.718  1.00  0.00    +0.000 H 
BRANCH   18   17
ATOM     17  C14 UNL A   1      45.581  45.785  20.730  1.00  0.00    +0.000 C 
ATOM    105  H14 UNL A   1      45.003  44.934  21.024  1.00  0.00    +0.000 H 
ATOM    104  H13 UNL A   1      45.531  46.560  21.466  1.00  0.00    +0.000 H 
BRANCH   17   16
ATOM    103  H12 UNL A   1      47.571  45.725  21.268  1.00  0.00    +0.000 H 
ATOM     16  N2  UNL A   1      46.959  45.362  20.587  1.00  0.00    +0.000 N 
BRANCH   16   14
ATOM     14  C13 UNL A   1      47.552  44.548  19.671  1.00  0.00    +0.000 C 
ATOM     15  O1  UNL A   1      46.971  43.485  19.421  1.00  0.00    +0.000 O 
BRANCH   14   12
ATOM     99  H8  UNL A   1      49.114  44.025  18.371  1.00  0.00    +0.000 H 
ATOM     12  C11 UNL A   1      48.880  44.878  18.974  1.00  0.00    +0.000 C 
BRANCH   12   11
ATOM     97  H6  UNL A   1      47.093  46.991  15.216  1.00  0.00    +0.000 H 
ATOM     98  H7  UNL A   1      47.086  45.277  16.910  1.00  0.00    +0.000 H 
ATOM    131  H40 UNL A   1      50.391  47.086  18.746  1.00  0.00    +0.000 H 
ATOM    132  H41 UNL A   1      50.311  48.876  17.132  1.00  0.00    +0.000 H 
ATOM      8  C7  UNL A   1      48.711  48.091  16.003  1.00  0.00    +0.000 C 
ATOM      9  C8  UNL A   1      47.793  47.029  15.973  1.00  0.00    +0.000 C 
ATOM     10  C9  UNL A   1      47.802  46.019  16.943  1.00  0.00    +0.000 C 
ATOM     11  C10 UNL A   1      48.764  46.000  17.955  1.00  0.00    +0.000 C 
ATOM     89  C65 UNL A   1      49.678  47.063  18.001  1.00  0.00    +0.000 C 
ATOM     90  C66 UNL A   1      49.641  48.096  17.054  1.00  0.00    +0.000 C 
BRANCH    8    7
ATOM      3  C3  UNL A   1      48.419  49.879  12.649  1.00  0.00    +0.000 C 
ATOM      4  C4  UNL A   1      48.651  51.177  13.093  1.00  0.00    +0.000 C 
ATOM      5  N1  UNL A   1      48.892  51.509  14.380  1.00  0.00    +0.000 N 
ATOM    133  H42 UNL A   1      48.294  47.882  13.316  1.00  0.00    +0.000 H 
ATOM      7  C6  UNL A   1      48.698  49.143  14.964  1.00  0.00    +0.000 C 
ATOM      6  C5  UNL A   1      48.915  50.488  15.271  1.00  0.00    +0.000 C 
ATOM     91  C67 UNL A   1      48.452  48.859  13.609  1.00  0.00    +0.000 C 
ATOM     95  H4  UNL A   1      48.637  51.934  12.394  1.00  0.00    +0.000 H 
ATOM     96  H5  UNL A   1      49.109  50.724  16.257  1.00  0.00    +0.000 H 
BRANCH    3    2
ATOM      2  C2  UNL A   1      48.214  49.623  11.219  1.00  0.00    +0.000 C 
ATOM     94  H3  UNL A   1      48.132  50.436  10.591  1.00  0.00    +0.000 H 
BRANCH    2    1
ATOM      1  C1  UNL A   1      48.126  48.401  10.678  1.00  0.00    +0.000 C 
ATOM     92  H1  UNL A   1      47.249  47.863  10.761  1.00  0.00    +0.000 H 
ATOM     93  H2  UNL A   1      48.934  47.999  10.178  1.00  0.00    +0.000 H 
ENDBRANCH    2    1
ENDBRANCH    3    2
ENDBRANCH    8    7
ENDBRANCH   12   11
BRANCH   12   13
ATOM    101  H10 UNL A   1      50.929  45.337  19.390  1.00  0.00    +0.000 H 
ATOM    100  H9  UNL A   1      49.854  45.570  20.749  1.00  0.00    +0.000 H 
ATOM     13  C12 UNL A   1      50.085  44.940  19.916  1.00  0.00    +0.000 C 
ATOM    102  H11 UNL A   1      50.314  43.955  20.266  1.00  0.00    +0.000 H 
ENDBRANCH   12   13
ENDBRANCH   14   12
ENDBRANCH   16   14
ENDBRANCH   17   16
ENDBRANCH   18   17
ENDBRANCH   19   18
ENDBRANCH   20   19
ENDBRANCH   21   20
ENDBRANCH   22   21
ENDBRANCH   23   22
ENDBRANCH   24   23
ENDBRANCH   26   24
ENDBRANCH   30   29
BRANCH   34   35
ATOM     35  C29 UNL A   1      47.744  56.060  15.423  1.00  0.00    +0.000 C 
ATOM     36  C30 UNL A   1      47.941  55.834  14.052  1.00  0.00    +0.000 C 
ATOM     37  F1  UNL A   1      48.616  54.752  13.637  1.00  0.00    +0.000 F 
ATOM     38  C31 UNL A   1      47.481  56.742  13.103  1.00  0.00    +0.000 C 
ATOM     39  F2  UNL A   1      47.723  56.530  11.802  1.00  0.00    +0.000 F 
ATOM     40  C32 UNL A   1      46.785  57.874  13.502  1.00  0.00    +0.000 C 
ATOM     41  F3  UNL A   1      46.338  58.745  12.586  1.00  0.00    +0.000 F 
ATOM     42  C33 UNL A   1      46.559  58.106  14.850  1.00  0.00    +0.000 C 
ATOM     43  F4  UNL A   1      45.876  59.193  15.236  1.00  0.00    +0.000 F 
ATOM     44  C34 UNL A   1      47.043  57.214  15.804  1.00  0.00    +0.000 C 
ATOM     45  F5  UNL A   1      46.821  57.474  17.101  1.00  0.00    +0.000 F 
ENDBRANCH   34   35
BRANCH   51   52
ATOM     52  C40 UNL A   1      53.332  55.324  19.919  1.00  0.00    +0.000 C 
ATOM     53  C41 UNL A   1      53.289  56.318  20.908  1.00  0.00    +0.000 C 
ATOM     54  F6  UNL A   1      52.126  56.637  21.495  1.00  0.00    +0.000 F 
ATOM     55  C42 UNL A   1      54.440  57.013  21.272  1.00  0.00    +0.000 C 
ATOM     56  F7  UNL A   1      54.369  57.988  22.189  1.00  0.00    +0.000 F 
ATOM     57  C43 UNL A   1      55.655  56.709  20.677  1.00  0.00    +0.000 C 
ATOM     58  F8  UNL A   1      56.762  57.376  21.032  1.00  0.00    +0.000 F 
ATOM     59  C44 UNL A   1      55.722  55.719  19.708  1.00  0.00    +0.000 C 
ATOM     60  F9  UNL A   1      56.898  55.417  19.139  1.00  0.00    +0.000 F 
ATOM     61  C45 UNL A   1      54.570  55.040  19.324  1.00  0.00    +0.000 C 
ATOM     62  F10 UNL A   1      54.662  54.095  18.375  1.00  0.00    +0.000 F 
ENDBRANCH   51   52
BRANCH   66   67
ATOM     67  C49 UNL A   1      50.760  49.203  22.019  1.00  0.00    +0.000 C 
ATOM     68  C50 UNL A   1      51.532  48.116  21.589  1.00  0.00    +0.000 C 
ATOM     69  F11 UNL A   1      51.834  47.983  20.289  1.00  0.00    +0.000 F 
ATOM     70  C51 UNL A   1      51.963  47.140  22.484  1.00  0.00    +0.000 C 
ATOM     71  F12 UNL A   1      52.666  46.090  22.040  1.00  0.00    +0.000 F 
ATOM     72  C52 UNL A   1      51.654  47.248  23.832  1.00  0.00    +0.000 C 
ATOM     73  F13 UNL A   1      52.073  46.313  24.695  1.00  0.00    +0.000 F 
ATOM     74  C53 UNL A   1      50.904  48.324  24.283  1.00  0.00    +0.000 C 
ATOM     75  F14 UNL A   1      50.614  48.438  25.587  1.00  0.00    +0.000 F 
ATOM     76  C54 UNL A   1      50.451  49.287  23.384  1.00  0.00    +0.000 C 
ATOM     77  F15 UNL A   1      49.720  50.312  23.846  1.00  0.00    +0.000 F 
ENDBRANCH   66   67
TORSDOF 20
ENDMDL
MODEL 7
REMARK VINA RESULT:     -10.4      0.856      2.272
ROOT
ATOM     30  C25 UNL A   1      38.039  30.245  29.976  1.00  0.00    +0.000 C 
ATOM     31  C26 UNL A   1      39.074  29.319  29.403  1.00  0.00    +0.000 C 
ATOM     32  N4  UNL A   1      40.157  28.837  29.962  1.00  0.00    +0.000 N 
ATOM     33  C27 UNL A   1      40.729  27.998  29.016  1.00  0.00    +0.000 C 
ATOM     34  C28 UNL A   1      41.892  27.305  29.093  1.00  0.00    +0.000 C 
ATOM     46  C35 UNL A   1      42.776  27.329  30.229  1.00  0.00    +0.000 C 
ATOM     47  C36 UNL A   1      44.004  26.709  30.379  1.00  0.00    +0.000 C 
ATOM     48  C37 UNL A   1      44.478  26.986  31.666  1.00  0.00    +0.000 C 
ATOM     49  C38 UNL A   1      43.566  27.811  32.302  1.00  0.00    +0.000 C 
ATOM     50  N5  UNL A   1      42.524  28.010  31.409  1.00  0.00    +0.000 N 
ATOM     51  C39 UNL A   1      43.636  28.377  33.625  1.00  0.00    +0.000 C 
ATOM     63  C46 UNL A   1      42.701  29.192  34.173  1.00  0.00    +0.000 C 
ATOM     64  N6  UNL A   1      41.517  29.656  33.620  1.00  0.00    +0.000 N 
ATOM     65  C47 UNL A   1      40.955  30.400  34.542  1.00  0.00    +0.000 C 
ATOM     66  C48 UNL A   1      39.668  31.176  34.483  1.00  0.00    +0.000 C 
ATOM     78  C55 UNL A   1      38.945  31.167  33.347  1.00  0.00    +0.000 C 
ATOM     79  C56 UNL A   1      37.683  31.872  33.141  1.00  0.00    +0.000 C 
ATOM     80  C57 UNL A   1      37.225  31.598  31.910  1.00  0.00    +0.000 C 
ATOM     81  C58 UNL A   1      38.179  30.723  31.228  1.00  0.00    +0.000 C 
ATOM     82  N7  UNL A   1      39.173  30.528  32.153  1.00  0.00    +0.000 N 
ATOM     83  C59 UNL A   1      41.712  30.468  35.800  1.00  0.00    +0.000 C 
ATOM     84  C60 UNL A   1      42.785  29.746  35.509  1.00  0.00    +0.000 C 
ATOM     85  C61 UNL A   1      39.854  28.000  27.864  1.00  0.00    +0.000 C 
ATOM     86  C62 UNL A   1      38.850  28.850  28.027  1.00  0.00    +0.000 C 
ATOM    119  H28 UNL A   1      44.487  26.141  29.666  1.00  0.00    +0.000 H 
ATOM    120  H29 UNL A   1      45.360  26.634  32.073  1.00  0.00    +0.000 H 
ATOM    121  H30 UNL A   1      41.723  28.554  31.588  1.00  0.00    +0.000 H 
ATOM    122  H31 UNL A   1      37.219  32.484  33.831  1.00  0.00    +0.000 H 
ATOM    123  H32 UNL A   1      36.341  31.947  31.508  1.00  0.00    +0.000 H 
ATOM    124  H33 UNL A   1      39.974  29.984  31.978  1.00  0.00    +0.000 H 
ATOM    125  H34 UNL A   1      41.472  30.952  36.680  1.00  0.00    +0.000 H 
ATOM    126  H35 UNL A   1      43.578  29.597  36.152  1.00  0.00    +0.000 H 
ATOM    127  H36 UNL A   1      39.993  27.417  27.025  1.00  0.00    +0.000 H 
ATOM    128  H37 UNL A   1      38.106  29.113  27.363  1.00  0.00    +0.000 H 
ENDROOT
BRANCH   30   29
ATOM    129  H38 UNL A   1      36.071  28.605  29.195  1.00  0.00    +0.000 H 
ATOM    130  H39 UNL A   1      34.133  29.106  27.828  1.00  0.00    +0.000 H 
ATOM    117  H26 UNL A   1      35.224  33.169  27.758  1.00  0.00    +0.000 H 
ATOM    118  H27 UNL A   1      37.268  32.637  28.954  1.00  0.00    +0.000 H 
ATOM     87  C63 UNL A   1      35.905  29.571  28.872  1.00  0.00    +0.000 C 
ATOM     88  C64 UNL A   1      34.769  29.865  28.120  1.00  0.00    +0.000 C 
ATOM     26  C21 UNL A   1      34.490  31.186  27.761  1.00  0.00    +0.000 C 
ATOM     27  C22 UNL A   1      35.409  32.198  28.056  1.00  0.00    +0.000 C 
ATOM     28  C23 UNL A   1      36.580  31.894  28.756  1.00  0.00    +0.000 C 
ATOM     29  C24 UNL A   1      36.824  30.583  29.193  1.00  0.00    +0.000 C 
BRANCH   26   24
ATOM     25  O2  UNL A   1      32.677  32.585  27.268  1.00  0.00    +0.000 O 
ATOM     24  C20 UNL A   1      33.258  31.537  27.019  1.00  0.00    +0.000 C 
BRANCH   24   23
ATOM    116  H25 UNL A   1      33.269  30.683  25.207  1.00  0.00    +0.000 H 
ATOM     23  N3  UNL A   1      32.765  30.694  26.052  1.00  0.00    +0.000 N 
BRANCH   23   22
ATOM    114  H23 UNL A   1      31.308  29.690  27.117  1.00  0.00    +0.000 H 
ATOM    115  H24 UNL A   1      30.828  30.266  25.517  1.00  0.00    +0.000 H 
ATOM     22  C19 UNL A   1      31.606  29.815  26.097  1.00  0.00    +0.000 C 
BRANCH   22   21
ATOM    113  H22 UNL A   1      32.809  28.551  24.936  1.00  0.00    +0.000 H 
ATOM     21  C18 UNL A   1      31.906  28.443  25.499  1.00  0.00    +0.000 C 
ATOM    112  H21 UNL A   1      31.067  28.150  24.901  1.00  0.00    +0.000 H 
BRANCH   21   20
ATOM     20  C17 UNL A   1      32.168  27.334  26.524  1.00  0.00    +0.000 C 
ATOM    110  H19 UNL A   1      32.759  27.749  27.313  1.00  0.00    +0.000 H 
ATOM    111  H20 UNL A   1      31.202  26.994  26.838  1.00  0.00    +0.000 H 
BRANCH   20   19
ATOM     19  C16 UNL A   1      32.895  26.092  25.991  1.00  0.00    +0.000 C 
ATOM    108  H17 UNL A   1      32.749  26.053  24.933  1.00  0.00    +0.000 H 
ATOM    109  H18 UNL A   1      33.919  26.203  26.280  1.00  0.00    +0.000 H 
BRANCH   19   18
ATOM     18  C15 UNL A   1      32.431  24.757  26.583  1.00  0.00    +0.000 C 
ATOM    107  H16 UNL A   1      31.573  24.451  26.023  1.00  0.00    +0.000 H 
ATOM    106  H15 UNL A   1      32.215  24.905  27.621  1.00  0.00    +0.000 H 
BRANCH   18   17
ATOM     17  C14 UNL A   1      33.461  23.632  26.463  1.00  0.00    +0.000 C 
ATOM    105  H14 UNL A   1      33.083  22.779  26.988  1.00  0.00    +0.000 H 
ATOM    104  H13 UNL A   1      34.388  23.964  26.883  1.00  0.00    +0.000 H 
BRANCH   17   16
ATOM    103  H12 UNL A   1      34.582  23.456  24.741  1.00  0.00    +0.000 H 
ATOM     16  N2  UNL A   1      33.683  23.247  25.085  1.00  0.00    +0.000 N 
BRANCH   16   14
ATOM     14  C13 UNL A   1      32.860  22.645  24.183  1.00  0.00    +0.000 C 
ATOM     15  O1  UNL A   1      32.421  21.531  24.495  1.00  0.00    +0.000 O 
BRANCH   14   12
ATOM     99  H8  UNL A   1      31.824  22.564  22.359  1.00  0.00    +0.000 H 
ATOM     12  C11 UNL A   1      32.482  23.266  22.830  1.00  0.00    +0.000 C 
BRANCH   12   11
ATOM     97  H6  UNL A   1      28.760  25.692  24.262  1.00  0.00    +0.000 H 
ATOM     98  H7  UNL A   1      30.170  23.737  24.270  1.00  0.00    +0.000 H 
ATOM    131  H40 UNL A   1      32.866  25.677  21.713  1.00  0.00    +0.000 H 
ATOM    132  H41 UNL A   1      31.526  27.680  21.817  1.00  0.00    +0.000 H 
ATOM      8  C7  UNL A   1      30.001  26.869  23.027  1.00  0.00    +0.000 C 
ATOM      9  C8  UNL A   1      29.642  25.704  23.725  1.00  0.00    +0.000 C 
ATOM     10  C9  UNL A   1      30.448  24.560  23.713  1.00  0.00    +0.000 C 
ATOM     11  C10 UNL A   1      31.621  24.513  22.957  1.00  0.00    +0.000 C 
ATOM     89  C65 UNL A   1      31.995  25.675  22.267  1.00  0.00    +0.000 C 
ATOM     90  C66 UNL A   1      31.209  26.835  22.315  1.00  0.00    +0.000 C 
BRANCH    8    7
ATOM      3  C3  UNL A   1      28.755  30.456  22.685  1.00  0.00    +0.000 C 
ATOM      4  C4  UNL A   1      27.430  30.243  23.051  1.00  0.00    +0.000 C 
ATOM      5  N1  UNL A   1      26.919  29.041  23.396  1.00  0.00    +0.000 N 
ATOM    133  H42 UNL A   1      30.599  29.462  22.433  1.00  0.00    +0.000 H 
ATOM      7  C6  UNL A   1      29.133  28.066  23.040  1.00  0.00    +0.000 C 
ATOM      6  C5  UNL A   1      27.781  27.996  23.387  1.00  0.00    +0.000 C 
ATOM     91  C67 UNL A   1      29.606  29.342  22.691  1.00  0.00    +0.000 C 
ATOM     95  H4  UNL A   1      26.797  31.057  23.059  1.00  0.00    +0.000 H 
ATOM     96  H5  UNL A   1      27.408  27.072  23.658  1.00  0.00    +0.000 H 
BRANCH    3    2
ATOM      2  C2  UNL A   1      29.218  31.812  22.374  1.00  0.00    +0.000 C 
ATOM     94  H3  UNL A   1      29.855  31.932  21.572  1.00  0.00    +0.000 H 
BRANCH    2    1
ATOM      1  C1  UNL A   1      28.867  32.905  23.064  1.00  0.00    +0.000 C 
ATOM     92  H1  UNL A   1      29.584  33.443  23.577  1.00  0.00    +0.000 H 
ATOM     93  H2  UNL A   1      27.881  33.208  23.085  1.00  0.00    +0.000 H 
ENDBRANCH    2    1
ENDBRANCH    3    2
ENDBRANCH    8    7
ENDBRANCH   12   11
BRANCH   12   13
ATOM    101  H10 UNL A   1      34.303  22.517  21.992  1.00  0.00    +0.000 H 
ATOM    100  H9  UNL A   1      33.248  23.291  20.833  1.00  0.00    +0.000 H 
ATOM     13  C12 UNL A   1      33.636  23.339  21.828  1.00  0.00    +0.000 C 
ATOM    102  H11 UNL A   1      34.166  24.259  21.962  1.00  0.00    +0.000 H 
ENDBRANCH   12   13
ENDBRANCH   14   12
ENDBRANCH   16   14
ENDBRANCH   17   16
ENDBRANCH   18   17
ENDBRANCH   19   18
ENDBRANCH   20   19
ENDBRANCH   21   20
ENDBRANCH   22   21
ENDBRANCH   23   22
ENDBRANCH   24   23
ENDBRANCH   26   24
ENDBRANCH   30   29
BRANCH   34   35
ATOM     35  C29 UNL A   1      42.276  26.465  27.910  1.00  0.00    +0.000 C 
ATOM     36  C30 UNL A   1      41.769  25.167  27.738  1.00  0.00    +0.000 C 
ATOM     37  F1  UNL A   1      40.955  24.633  28.659  1.00  0.00    +0.000 F 
ATOM     38  C31 UNL A   1      42.131  24.398  26.635  1.00  0.00    +0.000 C 
ATOM     39  F2  UNL A   1      41.674  23.145  26.516  1.00  0.00    +0.000 F 
ATOM     40  C32 UNL A   1      42.977  24.922  25.668  1.00  0.00    +0.000 C 
ATOM     41  F3  UNL A   1      43.320  24.181  24.605  1.00  0.00    +0.000 F 
ATOM     42  C33 UNL A   1      43.471  26.210  25.807  1.00  0.00    +0.000 C 
ATOM     43  F4  UNL A   1      44.278  26.721  24.867  1.00  0.00    +0.000 F 
ATOM     44  C34 UNL A   1      43.134  26.972  26.923  1.00  0.00    +0.000 C 
ATOM     45  F5  UNL A   1      43.640  28.209  27.037  1.00  0.00    +0.000 F 
ENDBRANCH   34   35
BRANCH   51   52
ATOM     52  C40 UNL A   1      44.844  28.063  34.455  1.00  0.00    +0.000 C 
ATOM     53  C41 UNL A   1      44.893  26.929  35.278  1.00  0.00    +0.000 C 
ATOM     54  F6  UNL A   1      43.828  26.120  35.378  1.00  0.00    +0.000 F 
ATOM     55  C42 UNL A   1      46.029  26.640  36.031  1.00  0.00    +0.000 C 
ATOM     56  F7  UNL A   1      46.040  25.575  36.843  1.00  0.00    +0.000 F 
ATOM     57  C43 UNL A   1      47.144  27.463  35.952  1.00  0.00    +0.000 C 
ATOM     58  F8  UNL A   1      48.237  27.182  36.673  1.00  0.00    +0.000 F 
ATOM     59  C44 UNL A   1      47.121  28.582  35.132  1.00  0.00    +0.000 C 
ATOM     60  F9  UNL A   1      48.201  29.371  35.047  1.00  0.00    +0.000 F 
ATOM     61  C45 UNL A   1      45.978  28.886  34.399  1.00  0.00    +0.000 C 
ATOM     62  F10 UNL A   1      45.981  29.981  33.623  1.00  0.00    +0.000 F 
ENDBRANCH   51   52
BRANCH   66   67
ATOM     67  C49 UNL A   1      39.207  31.973  35.647  1.00  0.00    +0.000 C 
ATOM     68  C50 UNL A   1      39.621  33.302  35.815  1.00  0.00    +0.000 C 
ATOM     69  F11 UNL A   1      40.462  33.857  34.930  1.00  0.00    +0.000 F 
ATOM     70  C51 UNL A   1      39.204  34.053  36.912  1.00  0.00    +0.000 C 
ATOM     71  F12 UNL A   1      39.647  35.307  37.069  1.00  0.00    +0.000 F 
ATOM     72  C52 UNL A   1      38.343  33.498  37.847  1.00  0.00    +0.000 C 
ATOM     73  F13 UNL A   1      37.937  34.222  38.899  1.00  0.00    +0.000 F 
ATOM     74  C53 UNL A   1      37.908  32.190  37.693  1.00  0.00    +0.000 C 
ATOM     75  F14 UNL A   1      37.066  31.655  38.589  1.00  0.00    +0.000 F 
ATOM     76  C54 UNL A   1      38.344  31.430  36.610  1.00  0.00    +0.000 C 
ATOM     77  F15 UNL A   1      37.915  30.165  36.491  1.00  0.00    +0.000 F 
ENDBRANCH   66   67
TORSDOF 20
ENDMDL
MODEL 8
REMARK VINA RESULT:     -10.4     20.182     27.565
ROOT
ATOM     30  C25 UNL A   1      25.999  39.351  46.538  1.00  0.00    +0.000 C 
ATOM     31  C26 UNL A   1      25.126  40.392  47.181  1.00  0.00    +0.000 C 
ATOM     32  N4  UNL A   1      23.898  40.286  47.625  1.00  0.00    +0.000 N 
ATOM     33  C27 UNL A   1      23.583  41.526  48.164  1.00  0.00    +0.000 C 
ATOM     34  C28 UNL A   1      22.410  41.941  48.701  1.00  0.00    +0.000 C 
ATOM     46  C35 UNL A   1      21.230  41.123  48.803  1.00  0.00    +0.000 C 
ATOM     47  C36 UNL A   1      19.977  41.470  49.275  1.00  0.00    +0.000 C 
ATOM     48  C37 UNL A   1      19.158  40.337  49.216  1.00  0.00    +0.000 C 
ATOM     49  C38 UNL A   1      19.889  39.296  48.669  1.00  0.00    +0.000 C 
ATOM     50  N5  UNL A   1      21.160  39.791  48.423  1.00  0.00    +0.000 N 
ATOM     51  C39 UNL A   1      19.462  37.949  48.389  1.00  0.00    +0.000 C 
ATOM     63  C46 UNL A   1      20.239  36.985  47.837  1.00  0.00    +0.000 C 
ATOM     64  N6  UNL A   1      21.562  37.061  47.424  1.00  0.00    +0.000 N 
ATOM     65  C47 UNL A   1      21.867  35.870  46.970  1.00  0.00    +0.000 C 
ATOM     66  C48 UNL A   1      23.159  35.383  46.373  1.00  0.00    +0.000 C 
ATOM     78  C55 UNL A   1      24.187  36.244  46.236  1.00  0.00    +0.000 C 
ATOM     79  C56 UNL A   1      25.494  35.917  45.674  1.00  0.00    +0.000 C 
ATOM     80  C57 UNL A   1      26.281  37.003  45.740  1.00  0.00    +0.000 C 
ATOM     81  C58 UNL A   1      25.521  38.110  46.320  1.00  0.00    +0.000 C 
ATOM     82  N7  UNL A   1      24.286  37.571  46.575  1.00  0.00    +0.000 N 
ATOM     83  C59 UNL A   1      20.775  34.892  47.070  1.00  0.00    +0.000 C 
ATOM     84  C60 UNL A   1      19.795  35.632  47.570  1.00  0.00    +0.000 C 
ATOM     85  C61 UNL A   1      24.762  42.356  48.034  1.00  0.00    +0.000 C 
ATOM     86  C62 UNL A   1      25.722  41.723  47.375  1.00  0.00    +0.000 C 
ATOM    119  H28 UNL A   1      19.695  42.404  49.613  1.00  0.00    +0.000 H 
ATOM    120  H29 UNL A   1      18.175  40.286  49.528  1.00  0.00    +0.000 H 
ATOM    121  H30 UNL A   1      21.903  39.273  48.037  1.00  0.00    +0.000 H 
ATOM    122  H31 UNL A   1      25.768  35.001  45.286  1.00  0.00    +0.000 H 
ATOM    123  H32 UNL A   1      27.265  37.048  45.432  1.00  0.00    +0.000 H 
ATOM    124  H33 UNL A   1      23.542  38.085  46.962  1.00  0.00    +0.000 H 
ATOM    125  H34 UNL A   1      20.771  33.891  46.818  1.00  0.00    +0.000 H 
ATOM    126  H35 UNL A   1      18.838  35.289  47.747  1.00  0.00    +0.000 H 
ATOM    127  H36 UNL A   1      24.844  43.315  48.404  1.00  0.00    +0.000 H 
ATOM    128  H37 UNL A   1      26.646  42.072  47.077  1.00  0.00    +0.000 H 
ENDROOT
BRANCH   30   29
ATOM    129  H38 UNL A   1      28.184  38.901  48.020  1.00  0.00    +0.000 H 
ATOM    130  H39 UNL A   1      30.485  39.495  47.547  1.00  0.00    +0.000 H 
ATOM    117  H26 UNL A   1      29.342  40.946  43.768  1.00  0.00    +0.000 H 
ATOM    118  H27 UNL A   1      27.013  40.537  44.319  1.00  0.00    +0.000 H 
ATOM     87  C63 UNL A   1      28.424  39.355  47.126  1.00  0.00    +0.000 C 
ATOM     88  C64 UNL A   1      29.753  39.660  46.839  1.00  0.00    +0.000 C 
ATOM     26  C21 UNL A   1      30.096  40.189  45.591  1.00  0.00    +0.000 C 
ATOM     27  C22 UNL A   1      29.094  40.519  44.674  1.00  0.00    +0.000 C 
ATOM     28  C23 UNL A   1      27.754  40.272  44.987  1.00  0.00    +0.000 C 
ATOM     29  C24 UNL A   1      27.411  39.664  46.204  1.00  0.00    +0.000 C 
BRANCH   26   24
ATOM     25  O2  UNL A   1      32.024  41.519  45.567  1.00  0.00    +0.000 O 
ATOM     24  C20 UNL A   1      31.507  40.461  45.234  1.00  0.00    +0.000 C 
BRANCH   24   23
ATOM    116  H25 UNL A   1      33.129  39.331  44.905  1.00  0.00    +0.000 H 
ATOM     23  N3  UNL A   1      32.239  39.530  44.535  1.00  0.00    +0.000 N 
BRANCH   23   22
ATOM    114  H23 UNL A   1      31.069  39.293  42.850  1.00  0.00    +0.000 H 
ATOM    115  H24 UNL A   1      32.750  38.775  42.694  1.00  0.00    +0.000 H 
ATOM     22  C19 UNL A   1      31.888  38.798  43.328  1.00  0.00    +0.000 C 
BRANCH   22   21
ATOM    113  H22 UNL A   1      31.789  37.165  44.638  1.00  0.00    +0.000 H 
ATOM     21  C18 UNL A   1      31.485  37.357  43.630  1.00  0.00    +0.000 C 
ATOM    112  H21 UNL A   1      31.964  36.720  42.915  1.00  0.00    +0.000 H 
BRANCH   21   20
ATOM     20  C17 UNL A   1      29.978  37.082  43.575  1.00  0.00    +0.000 C 
ATOM    110  H19 UNL A   1      29.469  38.012  43.720  1.00  0.00    +0.000 H 
ATOM    111  H20 UNL A   1      29.799  36.633  42.621  1.00  0.00    +0.000 H 
BRANCH   20   19
ATOM     19  C16 UNL A   1      29.445  36.085  44.613  1.00  0.00    +0.000 C 
ATOM    108  H17 UNL A   1      30.277  35.711  45.170  1.00  0.00    +0.000 H 
ATOM    109  H18 UNL A   1      28.739  36.626  45.207  1.00  0.00    +0.000 H 
BRANCH   19   18
ATOM     18  C15 UNL A   1      28.682  34.886  44.039  1.00  0.00    +0.000 C 
ATOM    107  H16 UNL A   1      28.856  34.885  42.983  1.00  0.00    +0.000 H 
ATOM    106  H15 UNL A   1      27.647  34.995  44.286  1.00  0.00    +0.000 H 
BRANCH   18   17
ATOM     17  C14 UNL A   1      29.162  33.533  44.567  1.00  0.00    +0.000 C 
ATOM    105  H14 UNL A   1      29.331  32.890  43.727  1.00  0.00    +0.000 H 
ATOM    104  H13 UNL A   1      28.414  33.130  45.218  1.00  0.00    +0.000 H 
BRANCH   17   16
ATOM    103  H12 UNL A   1      31.136  34.082  44.800  1.00  0.00    +0.000 H 
ATOM     16  N2  UNL A   1      30.406  33.648  45.299  1.00  0.00    +0.000 N 
BRANCH   16   14
ATOM     14  C13 UNL A   1      30.739  33.258  46.561  1.00  0.00    +0.000 C 
ATOM     15  O1  UNL A   1      30.915  32.047  46.734  1.00  0.00    +0.000 O 
BRANCH   14   12
ATOM     99  H8  UNL A   1      31.426  35.071  47.364  1.00  0.00    +0.000 H 
ATOM     12  C11 UNL A   1      30.880  34.231  47.741  1.00  0.00    +0.000 C 
BRANCH   12   11
ATOM     97  H6  UNL A   1      28.152  37.664  49.341  1.00  0.00    +0.000 H 
ATOM     98  H7  UNL A   1      30.235  36.817  48.472  1.00  0.00    +0.000 H 
ATOM    131  H40 UNL A   1      28.480  33.045  47.957  1.00  0.00    +0.000 H 
ATOM    132  H41 UNL A   1      26.360  33.928  48.695  1.00  0.00    +0.000 H 
ATOM      8  C7  UNL A   1      27.060  35.874  49.114  1.00  0.00    +0.000 C 
ATOM      9  C8  UNL A   1      28.207  36.679  49.035  1.00  0.00    +0.000 C 
ATOM     10  C9  UNL A   1      29.424  36.183  48.552  1.00  0.00    +0.000 C 
ATOM     11  C10 UNL A   1      29.560  34.845  48.179  1.00  0.00    +0.000 C 
ATOM     89  C65 UNL A   1      28.416  34.035  48.242  1.00  0.00    +0.000 C 
ATOM     90  C66 UNL A   1      27.187  34.544  48.685  1.00  0.00    +0.000 C 
BRANCH    8    7
ATOM      3  C3  UNL A   1      23.467  36.124  50.363  1.00  0.00    +0.000 C 
ATOM      4  C4  UNL A   1      23.452  37.483  50.660  1.00  0.00    +0.000 C 
ATOM      5  N1  UNL A   1      24.505  38.311  50.486  1.00  0.00    +0.000 N 
ATOM    133  H42 UNL A   1      24.702  34.593  49.600  1.00  0.00    +0.000 H 
ATOM      7  C6  UNL A   1      25.785  36.408  49.638  1.00  0.00    +0.000 C 
ATOM      6  C5  UNL A   1      25.631  37.755  49.978  1.00  0.00    +0.000 C 
ATOM     91  C67 UNL A   1      24.655  35.596  49.841  1.00  0.00    +0.000 C 
ATOM     95  H4  UNL A   1      22.580  37.883  51.037  1.00  0.00    +0.000 H 
ATOM     96  H5  UNL A   1      26.441  38.377  49.829  1.00  0.00    +0.000 H 
BRANCH    3    2
ATOM      2  C2  UNL A   1      22.251  35.324  50.546  1.00  0.00    +0.000 C 
ATOM     94  H3  UNL A   1      22.257  34.352  50.201  1.00  0.00    +0.000 H 
BRANCH    2    1
ATOM      1  C1  UNL A   1      21.134  35.774  51.131  1.00  0.00    +0.000 C 
ATOM     92  H1  UNL A   1      20.219  35.366  50.879  1.00  0.00    +0.000 H 
ATOM     93  H2  UNL A   1      21.187  36.528  51.833  1.00  0.00    +0.000 H 
ENDBRANCH    2    1
ENDBRANCH    3    2
ENDBRANCH    8    7
ENDBRANCH   12   11
BRANCH   12   13
ATOM    101  H10 UNL A   1      31.227  33.164  49.563  1.00  0.00    +0.000 H 
ATOM    100  H9  UNL A   1      32.565  33.115  48.441  1.00  0.00    +0.000 H 
ATOM     13  C12 UNL A   1      31.799  33.732  48.859  1.00  0.00    +0.000 C 
ATOM    102  H11 UNL A   1      32.244  34.569  49.354  1.00  0.00    +0.000 H 
ENDBRANCH   12   13
ENDBRANCH   14   12
ENDBRANCH   16   14
ENDBRANCH   17   16
ENDBRANCH   18   17
ENDBRANCH   19   18
ENDBRANCH   20   19
ENDBRANCH   21   20
ENDBRANCH   22   21
ENDBRANCH   23   22
ENDBRANCH   24   23
ENDBRANCH   26   24
ENDBRANCH   30   29
BRANCH   34   35
ATOM     35  C29 UNL A   1      22.345  43.349  49.217  1.00  0.00    +0.000 C 
ATOM     36  C30 UNL A   1      21.948  44.414  48.394  1.00  0.00    +0.000 C 
ATOM     37  F1  UNL A   1      21.655  44.197  47.103  1.00  0.00    +0.000 F 
ATOM     38  C31 UNL A   1      21.889  45.715  48.885  1.00  0.00    +0.000 C 
ATOM     39  F2  UNL A   1      21.554  46.723  48.069  1.00  0.00    +0.000 F 
ATOM     40  C32 UNL A   1      22.192  45.972  50.215  1.00  0.00    +0.000 C 
ATOM     41  F3  UNL A   1      22.130  47.225  50.687  1.00  0.00    +0.000 F 
ATOM     42  C33 UNL A   1      22.565  44.931  51.051  1.00  0.00    +0.000 C 
ATOM     43  F4  UNL A   1      22.846  45.176  52.338  1.00  0.00    +0.000 F 
ATOM     44  C34 UNL A   1      22.653  43.633  50.556  1.00  0.00    +0.000 C 
ATOM     45  F5  UNL A   1      23.031  42.649  51.386  1.00  0.00    +0.000 F 
ENDBRANCH   34   35
BRANCH   51   52
ATOM     52  C40 UNL A   1      18.044  37.585  48.712  1.00  0.00    +0.000 C 
ATOM     53  C41 UNL A   1      17.116  37.286  47.703  1.00  0.00    +0.000 C 
ATOM     54  F6  UNL A   1      17.470  37.371  46.413  1.00  0.00    +0.000 F 
ATOM     55  C42 UNL A   1      15.806  36.933  48.019  1.00  0.00    +0.000 C 
ATOM     56  F7  UNL A   1      14.924  36.693  47.040  1.00  0.00    +0.000 F 
ATOM     57  C43 UNL A   1      15.410  36.843  49.346  1.00  0.00    +0.000 C 
ATOM     58  F8  UNL A   1      14.151  36.498  49.648  1.00  0.00    +0.000 F 
ATOM     59  C44 UNL A   1      16.317  37.119  50.359  1.00  0.00    +0.000 C 
ATOM     60  F9  UNL A   1      15.938  37.023  51.641  1.00  0.00    +0.000 F 
ATOM     61  C45 UNL A   1      17.618  37.497  50.045  1.00  0.00    +0.000 C 
ATOM     62  F10 UNL A   1      18.471  37.770  51.046  1.00  0.00    +0.000 F 
ENDBRANCH   51   52
BRANCH   66   67
ATOM     67  C49 UNL A   1      23.301  33.982  45.905  1.00  0.00    +0.000 C 
ATOM     68  C50 UNL A   1      22.770  33.581  44.671  1.00  0.00    +0.000 C 
ATOM     69  F11 UNL A   1      22.106  34.464  43.911  1.00  0.00    +0.000 F 
ATOM     70  C51 UNL A   1      22.886  32.265  44.231  1.00  0.00    +0.000 C 
ATOM     71  F12 UNL A   1      22.335  31.900  43.066  1.00  0.00    +0.000 F 
ATOM     72  C52 UNL A   1      23.558  31.331  45.004  1.00  0.00    +0.000 C 
ATOM     73  F13 UNL A   1      23.675  30.065  44.578  1.00  0.00    +0.000 F 
ATOM     74  C53 UNL A   1      24.105  31.707  46.222  1.00  0.00    +0.000 C 
ATOM     75  F14 UNL A   1      24.766  30.809  46.965  1.00  0.00    +0.000 F 
ATOM     76  C54 UNL A   1      23.968  33.018  46.674  1.00  0.00    +0.000 C 
ATOM     77  F15 UNL A   1      24.498  33.353  47.860  1.00  0.00    +0.000 F 
ENDBRANCH   66   67
TORSDOF 20
ENDMDL
MODEL 9
REMARK VINA RESULT:     -10.3      2.660      7.670
ROOT
ATOM     30  C25 UNL A   1      40.027  28.834  29.322  1.00  0.00    +0.000 C 
ATOM     31  C26 UNL A   1      40.874  29.742  30.169  1.00  0.00    +0.000 C 
ATOM     32  N4  UNL A   1      42.126  29.610  30.532  1.00  0.00    +0.000 N 
ATOM     33  C27 UNL A   1      42.428  30.748  31.267  1.00  0.00    +0.000 C 
ATOM     34  C28 UNL A   1      43.582  31.060  31.906  1.00  0.00    +0.000 C 
ATOM     46  C35 UNL A   1      44.747  30.216  31.934  1.00  0.00    +0.000 C 
ATOM     47  C36 UNL A   1      45.942  30.415  32.602  1.00  0.00    +0.000 C 
ATOM     48  C37 UNL A   1      46.794  29.346  32.305  1.00  0.00    +0.000 C 
ATOM     49  C38 UNL A   1      46.115  28.460  31.485  1.00  0.00    +0.000 C 
ATOM     50  N5  UNL A   1      44.861  29.008  31.262  1.00  0.00    +0.000 N 
ATOM     51  C39 UNL A   1      46.573  27.206  30.943  1.00  0.00    +0.000 C 
ATOM     63  C46 UNL A   1      45.839  26.384  30.153  1.00  0.00    +0.000 C 
ATOM     64  N6  UNL A   1      44.535  26.543  29.705  1.00  0.00    +0.000 N 
ATOM     65  C47 UNL A   1      44.279  25.491  28.964  1.00  0.00    +0.000 C 
ATOM     66  C48 UNL A   1      43.011  25.123  28.244  1.00  0.00    +0.000 C 
ATOM     78  C55 UNL A   1      41.938  25.932  28.344  1.00  0.00    +0.000 C 
ATOM     79  C56 UNL A   1      40.644  25.703  27.706  1.00  0.00    +0.000 C 
ATOM     80  C57 UNL A   1      39.832  26.735  27.985  1.00  0.00    +0.000 C 
ATOM     81  C58 UNL A   1      40.539  27.681  28.849  1.00  0.00    +0.000 C 
ATOM     82  N7  UNL A   1      41.779  27.117  29.017  1.00  0.00    +0.000 N 
ATOM     83  C59 UNL A   1      45.407  24.558  28.838  1.00  0.00    +0.000 C 
ATOM     84  C60 UNL A   1      46.319  25.130  29.611  1.00  0.00    +0.000 C 
ATOM     85  C61 UNL A   1      41.245  31.581  31.263  1.00  0.00    +0.000 C 
ATOM     86  C62 UNL A   1      40.236  30.976  30.653  1.00  0.00    +0.000 C 
ATOM    119  H28 UNL A   1      46.167  31.216  33.214  1.00  0.00    +0.000 H 
ATOM    120  H29 UNL A   1      47.764  29.236  32.640  1.00  0.00    +0.000 H 
ATOM    121  H30 UNL A   1      44.157  28.600  30.708  1.00  0.00    +0.000 H 
ATOM    122  H31 UNL A   1      40.395  24.881  27.135  1.00  0.00    +0.000 H 
ATOM    123  H32 UNL A   1      38.864  26.844  27.644  1.00  0.00    +0.000 H 
ATOM    124  H33 UNL A   1      42.486  27.523  29.569  1.00  0.00    +0.000 H 
ATOM    125  H34 UNL A   1      45.473  23.685  28.290  1.00  0.00    +0.000 H 
ATOM    126  H35 UNL A   1      47.252  24.733  29.803  1.00  0.00    +0.000 H 
ATOM    127  H36 UNL A   1      41.193  32.523  31.680  1.00  0.00    +0.000 H 
ATOM    128  H37 UNL A   1      39.259  31.289  30.544  1.00  0.00    +0.000 H 
ENDROOT
BRANCH   30   29
ATOM    129  H38 UNL A   1      37.811  28.738  30.823  1.00  0.00    +0.000 H 
ATOM    130  H39 UNL A   1      35.534  29.285  30.201  1.00  0.00    +0.000 H 
ATOM    117  H26 UNL A   1      36.863  30.541  26.412  1.00  0.00    +0.000 H 
ATOM    118  H27 UNL A   1      39.111  29.807  26.961  1.00  0.00    +0.000 H 
ATOM     87  C63 UNL A   1      37.609  29.100  29.879  1.00  0.00    +0.000 C 
ATOM     88  C64 UNL A   1      36.305  29.451  29.536  1.00  0.00    +0.000 C 
ATOM     26  C21 UNL A   1      36.041  30.030  28.291  1.00  0.00    +0.000 C 
ATOM     27  C22 UNL A   1      37.065  30.150  27.346  1.00  0.00    +0.000 C 
ATOM     28  C23 UNL A   1      38.361  29.739  27.667  1.00  0.00    +0.000 C 
ATOM     29  C24 UNL A   1      38.649  29.235  28.945  1.00  0.00    +0.000 C 
BRANCH   26   24
ATOM     25  O2  UNL A   1      34.197  31.464  28.462  1.00  0.00    +0.000 O 
ATOM     24  C20 UNL A   1      34.677  30.474  27.925  1.00  0.00    +0.000 C 
BRANCH   24   23
ATOM    116  H25 UNL A   1      34.420  29.603  26.139  1.00  0.00    +0.000 H 
ATOM     23  N3  UNL A   1      33.950  29.785  26.985  1.00  0.00    +0.000 N 
BRANCH   23   22
ATOM    114  H23 UNL A   1      32.397  28.942  28.054  1.00  0.00    +0.000 H 
ATOM    115  H24 UNL A   1      31.926  30.084  26.792  1.00  0.00    +0.000 H 
ATOM     22  C19 UNL A   1      32.585  29.285  27.058  1.00  0.00    +0.000 C 
BRANCH   22   21
ATOM    113  H22 UNL A   1      31.538  28.436  25.454  1.00  0.00    +0.000 H 
ATOM     21  C18 UNL A   1      32.346  28.132  26.086  1.00  0.00    +0.000 C 
ATOM    112  H21 UNL A   1      32.127  27.254  26.659  1.00  0.00    +0.000 H 
BRANCH   21   20
ATOM     20  C17 UNL A   1      33.523  27.814  25.158  1.00  0.00    +0.000 C 
ATOM    110  H19 UNL A   1      33.409  28.399  24.270  1.00  0.00    +0.000 H 
ATOM    111  H20 UNL A   1      34.406  28.043  25.719  1.00  0.00    +0.000 H 
BRANCH   20   19
ATOM     19  C16 UNL A   1      33.663  26.343  24.741  1.00  0.00    +0.000 C 
ATOM    108  H17 UNL A   1      32.699  25.992  24.439  1.00  0.00    +0.000 H 
ATOM    109  H18 UNL A   1      34.391  26.327  23.957  1.00  0.00    +0.000 H 
BRANCH   19   18
ATOM     18  C15 UNL A   1      34.192  25.401  25.828  1.00  0.00    +0.000 C 
ATOM    107  H16 UNL A   1      33.365  25.169  26.466  1.00  0.00    +0.000 H 
ATOM    106  H15 UNL A   1      34.986  25.896  26.346  1.00  0.00    +0.000 H 
BRANCH   18   17
ATOM     17  C14 UNL A   1      34.724  24.070  25.292  1.00  0.00    +0.000 C 
ATOM    105  H14 UNL A   1      35.793  24.117  25.290  1.00  0.00    +0.000 H 
ATOM    104  H13 UNL A   1      34.342  23.917  24.303  1.00  0.00    +0.000 H 
BRANCH   17   16
ATOM    103  H12 UNL A   1      35.061  22.346  26.372  1.00  0.00    +0.000 H 
ATOM     16  N2  UNL A   1      34.327  22.954  26.125  1.00  0.00    +0.000 N 
BRANCH   16   14
ATOM     14  C13 UNL A   1      33.111  22.602  26.626  1.00  0.00    +0.000 C 
ATOM     15  O1  UNL A   1      33.030  22.498  27.856  1.00  0.00    +0.000 O 
BRANCH   14   12
ATOM     99  H8  UNL A   1      31.153  21.882  26.402  1.00  0.00    +0.000 H 
ATOM     12  C11 UNL A   1      31.880  22.321  25.751  1.00  0.00    +0.000 C 
BRANCH   12   11
ATOM     97  H6  UNL A   1      29.510  26.308  26.279  1.00  0.00    +0.000 H 
ATOM     98  H7  UNL A   1      30.763  24.436  27.137  1.00  0.00    +0.000 H 
ATOM    131  H40 UNL A   1      31.463  23.117  23.221  1.00  0.00    +0.000 H 
ATOM    132  H41 UNL A   1      30.329  25.064  22.360  1.00  0.00    +0.000 H 
ATOM      8  C7  UNL A   1      29.787  25.858  24.238  1.00  0.00    +0.000 C 
ATOM      9  C8  UNL A   1      29.935  25.640  25.617  1.00  0.00    +0.000 C 
ATOM     10  C9  UNL A   1      30.643  24.540  26.118  1.00  0.00    +0.000 C 
ATOM     11  C10 UNL A   1      31.188  23.583  25.260  1.00  0.00    +0.000 C 
ATOM     89  C65 UNL A   1      31.057  23.799  23.880  1.00  0.00    +0.000 C 
ATOM     90  C66 UNL A   1      30.385  24.922  23.380  1.00  0.00    +0.000 C 
BRANCH    8    7
ATOM      3  C3  UNL A   1      28.894  29.153  22.542  1.00  0.00    +0.000 C 
ATOM      4  C4  UNL A   1      27.521  29.125  22.761  1.00  0.00    +0.000 C 
ATOM      5  N1  UNL A   1      26.873  28.131  23.408  1.00  0.00    +0.000 N 
ATOM    133  H42 UNL A   1      30.667  28.070  22.907  1.00  0.00    +0.000 H 
ATOM      7  C6  UNL A   1      29.026  27.017  23.724  1.00  0.00    +0.000 C 
ATOM      6  C5  UNL A   1      27.640  27.117  23.873  1.00  0.00    +0.000 C 
ATOM     91  C67 UNL A   1      29.643  28.080  23.042  1.00  0.00    +0.000 C 
ATOM     95  H4  UNL A   1      26.960  29.914  22.404  1.00  0.00    +0.000 H 
ATOM     96  H5  UNL A   1      27.162  26.355  24.379  1.00  0.00    +0.000 H 
BRANCH    3    2
ATOM      2  C2  UNL A   1      29.502  30.305  21.867  1.00  0.00    +0.000 C 
ATOM     94  H3  UNL A   1      30.497  30.240  21.605  1.00  0.00    +0.000 H 
BRANCH    2    1
ATOM      1  C1  UNL A   1      28.848  31.436  21.571  1.00  0.00    +0.000 C 
ATOM     92  H1  UNL A   1      29.337  32.199  21.077  1.00  0.00    +0.000 H 
ATOM     93  H2  UNL A   1      27.857  31.544  21.836  1.00  0.00    +0.000 H 
ENDBRANCH    2    1
ENDBRANCH    3    2
ENDBRANCH    8    7
ENDBRANCH   12   11
BRANCH   12   13
ATOM    101  H10 UNL A   1      32.681  21.589  23.907  1.00  0.00    +0.000 H 
ATOM    100  H9  UNL A   1      32.586  20.387  25.172  1.00  0.00    +0.000 H 
ATOM     13  C12 UNL A   1      32.087  21.215  24.715  1.00  0.00    +0.000 C 
ATOM    102  H11 UNL A   1      31.137  20.896  24.340  1.00  0.00    +0.000 H 
ENDBRANCH   12   13
ENDBRANCH   14   12
ENDBRANCH   16   14
ENDBRANCH   17   16
ENDBRANCH   18   17
ENDBRANCH   19   18
ENDBRANCH   20   19
ENDBRANCH   21   20
ENDBRANCH   22   21
ENDBRANCH   23   22
ENDBRANCH   24   23
ENDBRANCH   26   24
ENDBRANCH   30   29
BRANCH   34   35
ATOM     35  C29 UNL A   1      43.637  32.372  32.633  1.00  0.00    +0.000 C 
ATOM     36  C30 UNL A   1      43.266  32.479  33.982  1.00  0.00    +0.000 C 
ATOM     37  F1  UNL A   1      42.809  31.406  34.644  1.00  0.00    +0.000 F 
ATOM     38  C31 UNL A   1      43.325  33.702  34.646  1.00  0.00    +0.000 C 
ATOM     39  F2  UNL A   1      42.919  33.791  35.919  1.00  0.00    +0.000 F 
ATOM     40  C32 UNL A   1      43.787  34.831  33.986  1.00  0.00    +0.000 C 
ATOM     41  F3  UNL A   1      43.847  36.006  34.628  1.00  0.00    +0.000 F 
ATOM     42  C33 UNL A   1      44.181  34.743  32.659  1.00  0.00    +0.000 C 
ATOM     43  F4  UNL A   1      44.639  35.830  32.024  1.00  0.00    +0.000 F 
ATOM     44  C34 UNL A   1      44.096  33.528  31.984  1.00  0.00    +0.000 C 
ATOM     45  F5  UNL A   1      44.470  33.478  30.697  1.00  0.00    +0.000 F 
ENDBRANCH   34   35
BRANCH   51   52
ATOM     52  C40 UNL A   1      47.960  26.759  31.295  1.00  0.00    +0.000 C 
ATOM     53  C41 UNL A   1      48.200  25.876  32.358  1.00  0.00    +0.000 C 
ATOM     54  F6  UNL A   1      47.183  25.448  33.122  1.00  0.00    +0.000 F 
ATOM     55  C42 UNL A   1      49.492  25.456  32.661  1.00  0.00    +0.000 C 
ATOM     56  F7  UNL A   1      49.704  24.646  33.707  1.00  0.00    +0.000 F 
ATOM     57  C43 UNL A   1      50.563  25.887  31.891  1.00  0.00    +0.000 C 
ATOM     58  F8  UNL A   1      51.806  25.479  32.182  1.00  0.00    +0.000 F 
ATOM     59  C44 UNL A   1      50.347  26.749  30.826  1.00  0.00    +0.000 C 
ATOM     60  F9  UNL A   1      51.379  27.159  30.076  1.00  0.00    +0.000 F 
ATOM     61  C45 UNL A   1      49.059  27.190  30.537  1.00  0.00    +0.000 C 
ATOM     62  F10 UNL A   1      48.881  28.033  29.507  1.00  0.00    +0.000 F 
ENDBRANCH   51   52
BRANCH   66   67
ATOM     67  C49 UNL A   1      42.921  23.868  27.456  1.00  0.00    +0.000 C 
ATOM     68  C50 UNL A   1      42.469  22.681  28.048  1.00  0.00    +0.000 C 
ATOM     69  F11 UNL A   1      42.135  22.667  29.347  1.00  0.00    +0.000 F 
ATOM     70  C51 UNL A   1      42.394  21.496  27.320  1.00  0.00    +0.000 C 
ATOM     71  F12 UNL A   1      41.996  20.367  27.922  1.00  0.00    +0.000 F 
ATOM     72  C52 UNL A   1      42.744  21.482  25.979  1.00  0.00    +0.000 C 
ATOM     73  F13 UNL A   1      42.668  20.343  25.276  1.00  0.00    +0.000 F 
ATOM     74  C53 UNL A   1      43.181  22.648  25.367  1.00  0.00    +0.000 C 
ATOM     75  F14 UNL A   1      43.508  22.640  24.067  1.00  0.00    +0.000 F 
ATOM     76  C54 UNL A   1      43.279  23.828  26.101  1.00  0.00    +0.000 C 
ATOM     77  F15 UNL A   1      43.713  24.939  25.487  1.00  0.00    +0.000 F 
ENDBRANCH   66   67
TORSDOF 20
ENDMDL
MODEL 10
REMARK VINA RESULT:     -10.3      3.557      7.476
ROOT
ATOM     30  C25 UNL A   1      40.674  28.042  29.003  1.00  0.00    +0.000 C 
ATOM     31  C26 UNL A   1      42.057  28.196  29.569  1.00  0.00    +0.000 C 
ATOM     32  N4  UNL A   1      42.555  29.169  30.291  1.00  0.00    +0.000 N 
ATOM     33  C27 UNL A   1      43.857  28.792  30.587  1.00  0.00    +0.000 C 
ATOM     34  C28 UNL A   1      44.805  29.484  31.265  1.00  0.00    +0.000 C 
ATOM     46  C35 UNL A   1      44.609  30.800  31.816  1.00  0.00    +0.000 C 
ATOM     47  C36 UNL A   1      45.525  31.609  32.466  1.00  0.00    +0.000 C 
ATOM     48  C37 UNL A   1      44.872  32.783  32.856  1.00  0.00    +0.000 C 
ATOM     49  C38 UNL A   1      43.561  32.724  32.412  1.00  0.00    +0.000 C 
ATOM     50  N5  UNL A   1      43.413  31.500  31.779  1.00  0.00    +0.000 N 
ATOM     51  C39 UNL A   1      42.520  33.709  32.554  1.00  0.00    +0.000 C 
ATOM     63  C46 UNL A   1      41.257  33.581  32.077  1.00  0.00    +0.000 C 
ATOM     64  N6  UNL A   1      40.695  32.528  31.370  1.00  0.00    +0.000 N 
ATOM     65  C47 UNL A   1      39.449  32.868  31.145  1.00  0.00    +0.000 C 
ATOM     66  C48 UNL A   1      38.379  32.119  30.400  1.00  0.00    +0.000 C 
ATOM     78  C55 UNL A   1      38.675  30.930  29.841  1.00  0.00    +0.000 C 
ATOM     79  C56 UNL A   1      37.744  30.093  29.088  1.00  0.00    +0.000 C 
ATOM     80  C57 UNL A   1      38.370  28.963  28.724  1.00  0.00    +0.000 C 
ATOM     81  C58 UNL A   1      39.756  29.011  29.190  1.00  0.00    +0.000 C 
ATOM     82  N7  UNL A   1      39.850  30.219  29.834  1.00  0.00    +0.000 N 
ATOM     83  C59 UNL A   1      39.073  34.171  31.712  1.00  0.00    +0.000 C 
ATOM     84  C60 UNL A   1      40.220  34.579  32.236  1.00  0.00    +0.000 C 
ATOM     85  C61 UNL A   1      44.061  27.482  30.007  1.00  0.00    +0.000 C 
ATOM     86  C62 UNL A   1      43.000  27.097  29.312  1.00  0.00    +0.000 C 
ATOM    119  H28 UNL A   1      46.518  31.384  32.635  1.00  0.00    +0.000 H 
ATOM    120  H29 UNL A   1      45.296  33.562  33.385  1.00  0.00    +0.000 H 
ATOM    121  H30 UNL A   1      42.581  31.175  31.365  1.00  0.00    +0.000 H 
ATOM    122  H31 UNL A   1      36.765  30.333  28.870  1.00  0.00    +0.000 H 
ATOM    123  H32 UNL A   1      37.942  28.184  28.199  1.00  0.00    +0.000 H 
ATOM    124  H33 UNL A   1      40.679  30.546  30.250  1.00  0.00    +0.000 H 
ATOM    125  H34 UNL A   1      38.155  34.645  31.704  1.00  0.00    +0.000 H 
ATOM    126  H35 UNL A   1      40.357  35.492  32.698  1.00  0.00    +0.000 H 
ATOM    127  H36 UNL A   1      44.919  26.921  30.119  1.00  0.00    +0.000 H 
ATOM    128  H37 UNL A   1      42.870  26.248  28.741  1.00  0.00    +0.000 H 
ENDROOT
BRANCH   30   29
ATOM    129  H38 UNL A   1      41.269  27.318  26.494  1.00  0.00    +0.000 H 
ATOM    130  H39 UNL A   1      40.569  25.339  25.281  1.00  0.00    +0.000 H 
ATOM    117  H26 UNL A   1      38.659  23.888  28.737  1.00  0.00    +0.000 H 
ATOM    118  H27 UNL A   1      39.186  25.957  29.893  1.00  0.00    +0.000 H 
ATOM     87  C63 UNL A   1      40.696  26.601  26.966  1.00  0.00    +0.000 C 
ATOM     88  C64 UNL A   1      40.328  25.445  26.279  1.00  0.00    +0.000 C 
ATOM     26  C21 UNL A   1      39.633  24.429  26.941  1.00  0.00    +0.000 C 
ATOM     27  C22 UNL A   1      39.206  24.621  28.259  1.00  0.00    +0.000 C 
ATOM     28  C23 UNL A   1      39.520  25.807  28.928  1.00  0.00    +0.000 C 
ATOM     29  C24 UNL A   1      40.290  26.794  28.296  1.00  0.00    +0.000 C 
BRANCH   26   24
ATOM     25  O2  UNL A   1      40.140  22.297  26.117  1.00  0.00    +0.000 O 
ATOM     24  C20 UNL A   1      39.287  23.163  26.257  1.00  0.00    +0.000 C 
BRANCH   24   23
ATOM    116  H25 UNL A   1      37.363  23.659  26.000  1.00  0.00    +0.000 H 
ATOM     23  N3  UNL A   1      38.014  22.955  25.781  1.00  0.00    +0.000 N 
BRANCH   23   22
ATOM    114  H23 UNL A   1      37.923  21.877  24.022  1.00  0.00    +0.000 H 
ATOM    115  H24 UNL A   1      37.747  20.937  25.507  1.00  0.00    +0.000 H 
ATOM     22  C19 UNL A   1      37.492  21.844  25.000  1.00  0.00    +0.000 C 
BRANCH   22   21
ATOM    113  H22 UNL A   1      35.659  20.924  24.568  1.00  0.00    +0.000 H 
ATOM     21  C18 UNL A   1      35.971  21.901  24.871  1.00  0.00    +0.000 C 
ATOM    112  H21 UNL A   1      35.727  22.664  24.160  1.00  0.00    +0.000 H 
BRANCH   21   20
ATOM     20  C17 UNL A   1      35.223  22.208  26.173  1.00  0.00    +0.000 C 
ATOM    110  H19 UNL A   1      34.484  21.448  26.314  1.00  0.00    +0.000 H 
ATOM    111  H20 UNL A   1      35.970  22.235  26.939  1.00  0.00    +0.000 H 
BRANCH   20   19
ATOM     19  C16 UNL A   1      34.517  23.570  26.230  1.00  0.00    +0.000 C 
ATOM    108  H17 UNL A   1      33.463  23.394  26.253  1.00  0.00    +0.000 H 
ATOM    109  H18 UNL A   1      34.890  24.059  27.105  1.00  0.00    +0.000 H 
BRANCH   19   18
ATOM     18  C15 UNL A   1      34.815  24.513  25.059  1.00  0.00    +0.000 C 
ATOM    107  H16 UNL A   1      34.230  24.173  24.231  1.00  0.00    +0.000 H 
ATOM    106  H15 UNL A   1      35.866  24.483  24.862  1.00  0.00    +0.000 H 
BRANCH   18   17
ATOM     17  C14 UNL A   1      34.415  25.968  25.315  1.00  0.00    +0.000 C 
ATOM    105  H14 UNL A   1      34.609  26.526  24.423  1.00  0.00    +0.000 H 
ATOM    104  H13 UNL A   1      34.986  26.344  26.138  1.00  0.00    +0.000 H 
BRANCH   17   16
ATOM    103  H12 UNL A   1      32.801  26.140  26.587  1.00  0.00    +0.000 H 
ATOM     16  N2  UNL A   1      33.006  26.095  25.625  1.00  0.00    +0.000 N 
BRANCH   16   14
ATOM     14  C13 UNL A   1      31.916  26.162  24.811  1.00  0.00    +0.000 C 
ATOM     15  O1  UNL A   1      31.884  27.105  24.011  1.00  0.00    +0.000 O 
BRANCH   14   12
ATOM     99  H8  UNL A   1      30.137  25.385  24.016  1.00  0.00    +0.000 H 
ATOM     12  C11 UNL A   1      30.756  25.157  24.859  1.00  0.00    +0.000 C 
BRANCH   12   11
ATOM     97  H6  UNL A   1      31.633  20.729  26.048  1.00  0.00    +0.000 H 
ATOM     98  H7  UNL A   1      30.748  22.927  26.492  1.00  0.00    +0.000 H 
ATOM    131  H40 UNL A   1      31.705  24.097  22.582  1.00  0.00    +0.000 H 
ATOM    132  H41 UNL A   1      32.462  21.859  22.096  1.00  0.00    +0.000 H 
ATOM      8  C7  UNL A   1      32.145  21.087  24.033  1.00  0.00    +0.000 C 
ATOM      9  C8  UNL A   1      31.641  21.437  25.296  1.00  0.00    +0.000 C 
ATOM     10  C9  UNL A   1      31.147  22.720  25.563  1.00  0.00    +0.000 C 
ATOM     11  C10 UNL A   1      31.187  23.724  24.594  1.00  0.00    +0.000 C 
ATOM     89  C65 UNL A   1      31.678  23.381  23.325  1.00  0.00    +0.000 C 
ATOM     90  C66 UNL A   1      32.132  22.084  23.046  1.00  0.00    +0.000 C 
BRANCH    8    7
ATOM      3  C3  UNL A   1      34.141  17.851  24.309  1.00  0.00    +0.000 C 
ATOM      4  C4  UNL A   1      33.578  17.176  23.231  1.00  0.00    +0.000 C 
ATOM      5  N1  UNL A   1      32.614  17.686  22.433  1.00  0.00    +0.000 N 
ATOM    133  H42 UNL A   1      34.076  19.684  25.352  1.00  0.00    +0.000 H 
ATOM      7  C6  UNL A   1      32.675  19.732  23.770  1.00  0.00    +0.000 C 
ATOM      6  C5  UNL A   1      32.199  18.943  22.720  1.00  0.00    +0.000 C 
ATOM     91  C67 UNL A   1      33.676  19.148  24.565  1.00  0.00    +0.000 C 
ATOM     95  H4  UNL A   1      33.919  16.224  23.028  1.00  0.00    +0.000 H 
ATOM     96  H5  UNL A   1      31.470  19.351  22.113  1.00  0.00    +0.000 H 
BRANCH    3    2
ATOM      2  C2  UNL A   1      35.217  17.222  25.083  1.00  0.00    +0.000 C 
ATOM     94  H3  UNL A   1      35.896  17.838  25.554  1.00  0.00    +0.000 H 
BRANCH    2    1
ATOM      1  C1  UNL A   1      35.373  15.898  25.216  1.00  0.00    +0.000 C 
ATOM     92  H1  UNL A   1      34.687  15.253  24.795  1.00  0.00    +0.000 H 
ATOM     93  H2  UNL A   1      36.180  15.524  25.740  1.00  0.00    +0.000 H 
ENDBRANCH    2    1
ENDBRANCH    3    2
ENDBRANCH    8    7
ENDBRANCH   12   11
BRANCH   12   13
ATOM    101  H10 UNL A   1      30.215  24.958  26.920  1.00  0.00    +0.000 H 
ATOM    100  H9  UNL A   1      29.620  26.416  26.163  1.00  0.00    +0.000 H 
ATOM     13  C12 UNL A   1      29.791  25.369  26.028  1.00  0.00    +0.000 C 
ATOM    102  H11 UNL A   1      28.863  24.880  25.816  1.00  0.00    +0.000 H 
ENDBRANCH   12   13
ENDBRANCH   14   12
ENDBRANCH   16   14
ENDBRANCH   17   16
ENDBRANCH   18   17
ENDBRANCH   19   18
ENDBRANCH   20   19
ENDBRANCH   21   20
ENDBRANCH   22   21
ENDBRANCH   23   22
ENDBRANCH   24   23
ENDBRANCH   26   24
ENDBRANCH   30   29
BRANCH   34   35
ATOM     35  C29 UNL A   1      46.144  28.831  31.444  1.00  0.00    +0.000 C 
ATOM     36  C30 UNL A   1      47.169  28.989  30.500  1.00  0.00    +0.000 C 
ATOM     37  F1  UNL A   1      46.956  29.702  29.384  1.00  0.00    +0.000 F 
ATOM     38  C31 UNL A   1      48.409  28.380  30.679  1.00  0.00    +0.000 C 
ATOM     39  F2  UNL A   1      49.357  28.504  29.741  1.00  0.00    +0.000 F 
ATOM     40  C32 UNL A   1      48.658  27.631  31.820  1.00  0.00    +0.000 C 
ATOM     41  F3  UNL A   1      49.853  27.049  31.993  1.00  0.00    +0.000 F 
ATOM     42  C33 UNL A   1      47.666  27.480  32.777  1.00  0.00    +0.000 C 
ATOM     43  F4  UNL A   1      47.909  26.767  33.885  1.00  0.00    +0.000 F 
ATOM     44  C34 UNL A   1      46.416  28.064  32.587  1.00  0.00    +0.000 C 
ATOM     45  F5  UNL A   1      45.472  27.888  33.524  1.00  0.00    +0.000 F 
ENDBRANCH   34   35
BRANCH   51   52
ATOM     52  C40 UNL A   1      42.858  34.986  33.263  1.00  0.00    +0.000 C 
ATOM     53  C41 UNL A   1      42.689  35.122  34.648  1.00  0.00    +0.000 C 
ATOM     54  F6  UNL A   1      42.167  34.118  35.367  1.00  0.00    +0.000 F 
ATOM     55  C42 UNL A   1      43.025  36.309  35.296  1.00  0.00    +0.000 C 
ATOM     56  F7  UNL A   1      42.816  36.434  36.613  1.00  0.00    +0.000 F 
ATOM     57  C43 UNL A   1      43.561  37.367  34.576  1.00  0.00    +0.000 C 
ATOM     58  F8  UNL A   1      43.887  38.507  35.201  1.00  0.00    +0.000 F 
ATOM     59  C44 UNL A   1      43.750  37.247  33.207  1.00  0.00    +0.000 C 
ATOM     60  F9  UNL A   1      44.278  38.265  32.513  1.00  0.00    +0.000 F 
ATOM     61  C45 UNL A   1      43.393  36.072  32.554  1.00  0.00    +0.000 C 
ATOM     62  F10 UNL A   1      43.577  35.988  31.227  1.00  0.00    +0.000 F 
ENDBRANCH   51   52
BRANCH   66   67
ATOM     67  C49 UNL A   1      37.017  32.689  30.248  1.00  0.00    +0.000 C 
ATOM     68  C50 UNL A   1      36.656  33.381  29.084  1.00  0.00    +0.000 C 
ATOM     69  F11 UNL A   1      37.554  33.554  28.103  1.00  0.00    +0.000 F 
ATOM     70  C51 UNL A   1      35.385  33.931  28.938  1.00  0.00    +0.000 C 
ATOM     71  F12 UNL A   1      35.079  34.622  27.832  1.00  0.00    +0.000 F 
ATOM     72  C52 UNL A   1      34.441  33.777  29.942  1.00  0.00    +0.000 C 
ATOM     73  F13 UNL A   1      33.217  34.301  29.801  1.00  0.00    +0.000 F 
ATOM     74  C53 UNL A   1      34.771  33.083  31.097  1.00  0.00    +0.000 C 
ATOM     75  F14 UNL A   1      33.857  32.921  32.065  1.00  0.00    +0.000 F 
ATOM     76  C54 UNL A   1      36.050  32.554  31.254  1.00  0.00    +0.000 C 
ATOM     77  F15 UNL A   1      36.345  31.895  32.385  1.00  0.00    +0.000 F 
ENDBRANCH   66   67
TORSDOF 20
ENDMDL
