MODEL 1
REMARK VINA RESULT:      -9.0      0.000      0.000
ROOT
ATOM     24  C18 UNL A   1      14.023  53.747   5.178  1.00  0.00    +0.000 C 
ATOM     25  C19 UNL A   1      14.978  54.190   4.105  1.00  0.00    +0.000 C 
ATOM     26  N4  UNL A   1      15.457  53.514   3.092  1.00  0.00    +0.000 N 
ATOM     27  C20 UNL A   1      16.253  54.405   2.385  1.00  0.00    +0.000 C 
ATOM     28  C21 UNL A   1      17.007  54.174   1.284  1.00  0.00    +0.000 C 
ATOM     40  C28 UNL A   1      17.128  52.893   0.638  1.00  0.00    +0.000 C 
ATOM     41  C29 UNL A   1      17.921  52.542  -0.441  1.00  0.00    +0.000 C 
ATOM     42  C30 UNL A   1      17.681  51.196  -0.740  1.00  0.00    +0.000 C 
ATOM     43  C31 UNL A   1      16.770  50.699   0.179  1.00  0.00    +0.000 C 
ATOM     44  N5  UNL A   1      16.436  51.752   1.015  1.00  0.00    +0.000 N 
ATOM     45  C32 UNL A   1      16.242  49.365   0.285  1.00  0.00    +0.000 C 
ATOM     57  C39 UNL A   1      15.353  48.951   1.221  1.00  0.00    +0.000 C 
ATOM     58  N6  UNL A   1      14.777  49.675   2.256  1.00  0.00    +0.000 N 
ATOM     59  C40 UNL A   1      13.981  48.840   2.878  1.00  0.00    +0.000 C 
ATOM     60  C41 UNL A   1      13.125  49.073   4.093  1.00  0.00    +0.000 C 
ATOM     72  C48 UNL A   1      13.141  50.280   4.689  1.00  0.00    +0.000 C 
ATOM     73  C49 UNL A   1      12.371  50.651   5.872  1.00  0.00    +0.000 C 
ATOM     74  C50 UNL A   1      12.601  51.943   6.157  1.00  0.00    +0.000 C 
ATOM     75  C51 UNL A   1      13.563  52.481   5.194  1.00  0.00    +0.000 C 
ATOM     76  N7  UNL A   1      13.834  51.421   4.365  1.00  0.00    +0.000 N 
ATOM     77  C52 UNL A   1      13.939  47.495   2.286  1.00  0.00    +0.000 C 
ATOM     78  C53 UNL A   1      14.822  47.607   1.304  1.00  0.00    +0.000 C 
ATOM     79  C54 UNL A   1      16.161  55.682   3.059  1.00  0.00    +0.000 C 
ATOM     80  C55 UNL A   1      15.435  55.588   4.164  1.00  0.00    +0.000 C 
ATOM    105  H22 UNL A   1      18.575  53.165  -0.938  1.00  0.00    +0.000 H 
ATOM    106  H23 UNL A   1      18.110  50.664  -1.513  1.00  0.00    +0.000 H 
ATOM    107  H24 UNL A   1      15.802  51.698   1.766  1.00  0.00    +0.000 H 
ATOM    108  H25 UNL A   1      11.750  50.023   6.405  1.00  0.00    +0.000 H 
ATOM    109  H26 UNL A   1      12.170  52.472   6.931  1.00  0.00    +0.000 H 
ATOM    110  H27 UNL A   1      14.464  51.473   3.611  1.00  0.00    +0.000 H 
ATOM    111  H28 UNL A   1      13.371  46.680   2.562  1.00  0.00    +0.000 H 
ATOM    112  H29 UNL A   1      15.097  46.833   0.678  1.00  0.00    +0.000 H 
ATOM    113  H30 UNL A   1      16.603  56.552   2.724  1.00  0.00    +0.000 H 
ATOM    114  H31 UNL A   1      15.242  56.306   4.879  1.00  0.00    +0.000 H 
ENDROOT
BRANCH   24   23
ATOM    103  H20 UNL A   1      14.142  55.890   9.275  1.00  0.00    +0.000 H 
ATOM    104  H21 UNL A   1      15.041  54.363   7.616  1.00  0.00    +0.000 H 
ATOM     81  C56 UNL A   1      12.387  55.489   5.896  1.00  0.00    +0.000 C 
ATOM     82  C57 UNL A   1      11.915  56.418   6.821  1.00  0.00    +0.000 C 
ATOM    115  H32 UNL A   1      11.895  55.364   4.998  1.00  0.00    +0.000 H 
ATOM     20  C14 UNL A   1      12.522  56.525   8.075  1.00  0.00    +0.000 C 
ATOM     21  C15 UNL A   1      13.671  55.782   8.363  1.00  0.00    +0.000 C 
ATOM    116  H33 UNL A   1      11.118  57.027   6.580  1.00  0.00    +0.000 H 
ATOM     22  C16 UNL A   1      14.180  54.894   7.413  1.00  0.00    +0.000 C 
ATOM     23  C17 UNL A   1      13.526  54.721   6.182  1.00  0.00    +0.000 C 
BRANCH   20   18
ATOM     18  C13 UNL A   1      11.991  57.445   9.107  1.00  0.00    +0.000 C 
ATOM     19  O3  UNL A   1      12.217  58.644   9.027  1.00  0.00    +0.000 O 
BRANCH   18   17
ATOM     17  N3  UNL A   1      11.248  56.949  10.152  1.00  0.00    +0.000 N 
ATOM    102  H19 UNL A   1      11.487  57.294  11.042  1.00  0.00    +0.000 H 
BRANCH   17   16
ATOM    100  H17 UNL A   1       9.376  56.331  10.766  1.00  0.00    +0.000 H 
ATOM    101  H18 UNL A   1       9.821  55.895   9.114  1.00  0.00    +0.000 H 
ATOM     16  C12 UNL A   1      10.160  55.985  10.125  1.00  0.00    +0.000 C 
BRANCH   16   15
ATOM     98  H15 UNL A   1      11.511  54.723  11.163  1.00  0.00    +0.000 H 
ATOM     99  H16 UNL A   1       9.803  54.203  11.174  1.00  0.00    +0.000 H 
ATOM     15  C11 UNL A   1      10.610  54.605  10.597  1.00  0.00    +0.000 C 
BRANCH   15   14
ATOM     97  H14 UNL A   1      11.095  54.186   8.600  1.00  0.00    +0.000 H 
ATOM     14  C10 UNL A   1      10.880  53.603   9.470  1.00  0.00    +0.000 C 
ATOM     96  H13 UNL A   1      10.014  52.982   9.367  1.00  0.00    +0.000 H 
BRANCH   14   13
ATOM     13  C9  UNL A   1      12.095  52.692   9.684  1.00  0.00    +0.000 C 
ATOM     94  H11 UNL A   1      11.851  51.720   9.308  1.00  0.00    +0.000 H 
ATOM     95  H12 UNL A   1      12.910  53.155   9.168  1.00  0.00    +0.000 H 
BRANCH   13   12
ATOM     92  H9  UNL A   1      11.865  53.073  11.771  1.00  0.00    +0.000 H 
ATOM     12  C8  UNL A   1      12.547  52.537  11.146  1.00  0.00    +0.000 C 
ATOM     93  H10 UNL A   1      12.558  51.490  11.364  1.00  0.00    +0.000 H 
BRANCH   12   11
ATOM     90  H7  UNL A   1      13.944  54.138  11.383  1.00  0.00    +0.000 H 
ATOM     11  C7  UNL A   1      13.960  53.068  11.401  1.00  0.00    +0.000 C 
ATOM     91  H8  UNL A   1      14.296  52.728  12.359  1.00  0.00    +0.000 H 
BRANCH   11   10
ATOM     89  H6  UNL A   1      14.808  53.094   9.538  1.00  0.00    +0.000 H 
ATOM     10  N2  UNL A   1      14.865  52.584  10.379  1.00  0.00    +0.000 N 
BRANCH   10    8
ATOM      9  O2  UNL A   1      16.505  51.424  11.321  1.00  0.00    +0.000 O 
ATOM      8  C6  UNL A   1      15.783  51.570  10.329  1.00  0.00    +0.000 C 
BRANCH    8    7
ATOM      2  C1  UNL A   1      16.650  50.284   6.823  1.00  0.00    +0.000 C 
ATOM      3  C2  UNL A   1      16.529  48.910   7.031  1.00  0.00    +0.000 C 
ATOM      4  C3  UNL A   1      16.182  48.415   8.286  1.00  0.00    +0.000 C 
ATOM      5  C4  UNL A   1      15.946  49.298   9.336  1.00  0.00    +0.000 C 
ATOM      7  C5  UNL A   1      16.031  50.691   9.151  1.00  0.00    +0.000 C 
ATOM     83  C58 UNL A   1      16.308  51.162   7.862  1.00  0.00    +0.000 C 
ATOM    117  H34 UNL A   1      16.260  52.176   7.672  1.00  0.00    +0.000 H 
ATOM     86  H3  UNL A   1      16.697  48.257   6.251  1.00  0.00    +0.000 H 
ATOM     87  H4  UNL A   1      16.102  47.397   8.437  1.00  0.00    +0.000 H 
BRANCH    2    1
ATOM      1  N1  UNL A   1      16.890  50.776   5.533  1.00  0.00    +0.000 N 
ATOM     84  H1  UNL A   1      16.139  51.068   4.970  1.00  0.00    +0.000 H 
ATOM     85  H2  UNL A   1      17.812  50.830   5.191  1.00  0.00    +0.000 H 
ENDBRANCH    2    1
BRANCH    5    6
ATOM      6  O1  UNL A   1      15.606  48.712  10.529  1.00  0.00    +0.000 O 
ATOM     88  H5  UNL A   1      15.661  47.782  10.627  1.00  0.00    +0.000 H 
ENDBRANCH    5    6
ENDBRANCH    8    7
ENDBRANCH   10    8
ENDBRANCH   11   10
ENDBRANCH   12   11
ENDBRANCH   13   12
ENDBRANCH   14   13
ENDBRANCH   15   14
ENDBRANCH   16   15
ENDBRANCH   17   16
ENDBRANCH   18   17
ENDBRANCH   20   18
ENDBRANCH   24   23
BRANCH   28   29
ATOM     33  F2  UNL A   1      20.919  57.122   1.159  1.00  0.00    +0.000 F 
ATOM     34  C25 UNL A   1      19.218  57.445  -0.446  1.00  0.00    +0.000 C 
ATOM     35  F3  UNL A   1      19.905  58.457  -0.991  1.00  0.00    +0.000 F 
ATOM     36  C26 UNL A   1      17.982  57.084  -0.963  1.00  0.00    +0.000 C 
ATOM     37  F4  UNL A   1      17.484  57.739  -2.022  1.00  0.00    +0.000 F 
ATOM     38  C27 UNL A   1      17.259  56.044  -0.387  1.00  0.00    +0.000 C 
ATOM     39  F5  UNL A   1      16.063  55.726  -0.903  1.00  0.00    +0.000 F 
ATOM     29  C22 UNL A   1      17.770  55.329   0.707  1.00  0.00    +0.000 C 
ATOM     30  C23 UNL A   1      19.029  55.700   1.205  1.00  0.00    +0.000 C 
ATOM     31  F1  UNL A   1      19.555  55.056   2.257  1.00  0.00    +0.000 F 
ATOM     32  C24 UNL A   1      19.737  56.759   0.642  1.00  0.00    +0.000 C 
ENDBRANCH   28   29
BRANCH   45   46
ATOM     46  C33 UNL A   1      16.724  48.342  -0.702  1.00  0.00    +0.000 C 
ATOM     47  C34 UNL A   1      15.965  47.992  -1.827  1.00  0.00    +0.000 C 
ATOM     48  F6  UNL A   1      14.751  48.532  -2.016  1.00  0.00    +0.000 F 
ATOM     49  C35 UNL A   1      16.436  47.055  -2.743  1.00  0.00    +0.000 C 
ATOM     50  F7  UNL A   1      15.675  46.703  -3.789  1.00  0.00    +0.000 F 
ATOM     51  C36 UNL A   1      17.683  46.476  -2.567  1.00  0.00    +0.000 C 
ATOM     52  F8  UNL A   1      18.137  45.579  -3.454  1.00  0.00    +0.000 F 
ATOM     53  C37 UNL A   1      18.458  46.821  -1.470  1.00  0.00    +0.000 C 
ATOM     54  F9  UNL A   1      19.669  46.271  -1.306  1.00  0.00    +0.000 F 
ATOM     55  C38 UNL A   1      17.980  47.737  -0.539  1.00  0.00    +0.000 C 
ATOM     56  F10 UNL A   1      18.746  48.044   0.519  1.00  0.00    +0.000 F 
ENDBRANCH   45   46
BRANCH   60   61
ATOM     65  F12 UNL A   1      12.529  45.306   7.129  1.00  0.00    +0.000 F 
ATOM     66  C45 UNL A   1      10.737  45.882   5.703  1.00  0.00    +0.000 C 
ATOM     67  F13 UNL A   1      10.002  44.875   6.194  1.00  0.00    +0.000 F 
ATOM     68  C46 UNL A   1      10.223  46.698   4.705  1.00  0.00    +0.000 C 
ATOM     69  F14 UNL A   1       8.981  46.491   4.246  1.00  0.00    +0.000 F 
ATOM     70  C47 UNL A   1      10.996  47.729   4.177  1.00  0.00    +0.000 C 
ATOM     71  F15 UNL A   1      10.478  48.493   3.204  1.00  0.00    +0.000 F 
ATOM     61  C42 UNL A   1      12.291  47.979   4.653  1.00  0.00    +0.000 C 
ATOM     62  C43 UNL A   1      12.782  47.154   5.675  1.00  0.00    +0.000 C 
ATOM     63  F11 UNL A   1      14.023  47.342   6.147  1.00  0.00    +0.000 F 
ATOM     64  C44 UNL A   1      12.018  46.107   6.184  1.00  0.00    +0.000 C 
ENDBRANCH   60   61
TORSDOF 17
ENDMDL
MODEL 2
REMARK VINA RESULT:      -8.9      3.153      7.739
ROOT
ATOM     24  C18 UNL A   1      13.322  49.592   3.337  1.00  0.00    +0.000 C 
ATOM     25  C19 UNL A   1      13.322  51.025   3.793  1.00  0.00    +0.000 C 
ATOM     26  N4  UNL A   1      13.991  52.044   3.319  1.00  0.00    +0.000 N 
ATOM     27  C20 UNL A   1      13.588  53.142   4.068  1.00  0.00    +0.000 C 
ATOM     28  C21 UNL A   1      14.029  54.421   3.997  1.00  0.00    +0.000 C 
ATOM     40  C28 UNL A   1      15.055  54.876   3.095  1.00  0.00    +0.000 C 
ATOM     41  C29 UNL A   1      15.618  56.137   2.995  1.00  0.00    +0.000 C 
ATOM     42  C30 UNL A   1      16.551  56.116   1.952  1.00  0.00    +0.000 C 
ATOM     43  C31 UNL A   1      16.598  54.833   1.431  1.00  0.00    +0.000 C 
ATOM     44  N5  UNL A   1      15.672  54.084   2.138  1.00  0.00    +0.000 N 
ATOM     45  C32 UNL A   1      17.423  54.328   0.366  1.00  0.00    +0.000 C 
ATOM     57  C39 UNL A   1      17.416  53.050  -0.086  1.00  0.00    +0.000 C 
ATOM     58  N6  UNL A   1      16.658  51.974   0.355  1.00  0.00    +0.000 N 
ATOM     59  C40 UNL A   1      17.001  50.959  -0.400  1.00  0.00    +0.000 C 
ATOM     60  C41 UNL A   1      16.521  49.535  -0.351  1.00  0.00    +0.000 C 
ATOM     72  C48 UNL A   1      15.623  49.174   0.585  1.00  0.00    +0.000 C 
ATOM     73  C49 UNL A   1      15.072  47.834   0.759  1.00  0.00    +0.000 C 
ATOM     74  C50 UNL A   1      14.175  47.855   1.759  1.00  0.00    +0.000 C 
ATOM     75  C51 UNL A   1      14.116  49.206   2.320  1.00  0.00    +0.000 C 
ATOM     76  N7  UNL A   1      15.015  49.919   1.566  1.00  0.00    +0.000 N 
ATOM     77  C52 UNL A   1      17.998  51.287  -1.429  1.00  0.00    +0.000 C 
ATOM     78  C53 UNL A   1      18.245  52.563  -1.168  1.00  0.00    +0.000 C 
ATOM     79  C54 UNL A   1      12.586  52.674   5.000  1.00  0.00    +0.000 C 
ATOM     80  C55 UNL A   1      12.430  51.360   4.914  1.00  0.00    +0.000 C 
ATOM    105  H22 UNL A   1      15.389  56.950   3.586  1.00  0.00    +0.000 H 
ATOM    106  H23 UNL A   1      17.110  56.921   1.627  1.00  0.00    +0.000 H 
ATOM    107  H24 UNL A   1      15.480  53.131   1.985  1.00  0.00    +0.000 H 
ATOM    108  H25 UNL A   1      15.327  47.004   0.203  1.00  0.00    +0.000 H 
ATOM    109  H26 UNL A   1      13.618  47.049   2.081  1.00  0.00    +0.000 H 
ATOM    110  H27 UNL A   1      15.206  50.873   1.714  1.00  0.00    +0.000 H 
ATOM    111  H28 UNL A   1      18.400  50.683  -2.162  1.00  0.00    +0.000 H 
ATOM    112  H29 UNL A   1      18.940  53.136  -1.672  1.00  0.00    +0.000 H 
ATOM    113  H30 UNL A   1      12.062  53.282   5.648  1.00  0.00    +0.000 H 
ATOM    114  H31 UNL A   1      11.838  50.737   5.484  1.00  0.00    +0.000 H 
ENDROOT
BRANCH   24   23
ATOM    103  H20 UNL A   1       9.249  47.445   3.770  1.00  0.00    +0.000 H 
ATOM    104  H21 UNL A   1      10.765  48.985   2.665  1.00  0.00    +0.000 H 
ATOM     81  C56 UNL A   1      12.840  47.832   5.039  1.00  0.00    +0.000 C 
ATOM     82  C57 UNL A   1      11.990  46.897   5.625  1.00  0.00    +0.000 C 
ATOM    115  H32 UNL A   1      13.798  47.953   5.401  1.00  0.00    +0.000 H 
ATOM     20  C14 UNL A   1      10.663  46.794   5.199  1.00  0.00    +0.000 C 
ATOM     21  C15 UNL A   1      10.217  47.550   4.110  1.00  0.00    +0.000 C 
ATOM    116  H33 UNL A   1      12.341  46.279   6.374  1.00  0.00    +0.000 H 
ATOM     22  C16 UNL A   1      11.087  48.445   3.482  1.00  0.00    +0.000 C 
ATOM     23  C17 UNL A   1      12.397  48.612   3.959  1.00  0.00    +0.000 C 
BRANCH   20   18
ATOM     18  C13 UNL A   1       9.716  45.867   5.860  1.00  0.00    +0.000 C 
ATOM     19  O3  UNL A   1       8.684  45.544   5.290  1.00  0.00    +0.000 O 
BRANCH   18   17
ATOM     17  N3  UNL A   1       9.998  45.376   7.112  1.00  0.00    +0.000 N 
ATOM    102  H19 UNL A   1      10.533  44.550   7.133  1.00  0.00    +0.000 H 
BRANCH   17   16
ATOM    100  H17 UNL A   1       8.754  46.531   8.289  1.00  0.00    +0.000 H 
ATOM    101  H18 UNL A   1       9.405  45.081   9.058  1.00  0.00    +0.000 H 
ATOM     16  C12 UNL A   1       9.615  45.907   8.411  1.00  0.00    +0.000 C 
BRANCH   16   15
ATOM     98  H15 UNL A   1      10.936  47.565   8.405  1.00  0.00    +0.000 H 
ATOM     99  H16 UNL A   1      10.388  47.019  10.014  1.00  0.00    +0.000 H 
ATOM     15  C11 UNL A   1      10.734  46.730   9.043  1.00  0.00    +0.000 C 
BRANCH   15   14
ATOM     97  H14 UNL A   1      12.040  45.164   8.549  1.00  0.00    +0.000 H 
ATOM     14  C10 UNL A   1      12.043  45.965   9.258  1.00  0.00    +0.000 C 
ATOM     96  H13 UNL A   1      12.070  45.634  10.276  1.00  0.00    +0.000 H 
BRANCH   14   13
ATOM     13  C9  UNL A   1      13.322  46.769   8.987  1.00  0.00    +0.000 C 
ATOM     94  H11 UNL A   1      14.151  46.093   9.020  1.00  0.00    +0.000 H 
ATOM     95  H12 UNL A   1      13.186  47.230   8.031  1.00  0.00    +0.000 H 
BRANCH   13   12
ATOM     92  H9  UNL A   1      12.954  47.791  10.823  1.00  0.00    +0.000 H 
ATOM     12  C8  UNL A   1      13.598  47.911   9.978  1.00  0.00    +0.000 C 
ATOM     93  H10 UNL A   1      14.632  47.854  10.246  1.00  0.00    +0.000 H 
BRANCH   12   11
ATOM     90  H7  UNL A   1      12.317  49.425   9.178  1.00  0.00    +0.000 H 
ATOM     11  C7  UNL A   1      13.360  49.300   9.381  1.00  0.00    +0.000 C 
ATOM     91  H8  UNL A   1      13.684  50.043  10.080  1.00  0.00    +0.000 H 
BRANCH   11   10
ATOM     89  H6  UNL A   1      13.558  49.323   7.343  1.00  0.00    +0.000 H 
ATOM     10  N2  UNL A   1      14.110  49.446   8.149  1.00  0.00    +0.000 N 
BRANCH   10    8
ATOM      9  O2  UNL A   1      16.114  50.149   8.793  1.00  0.00    +0.000 O 
ATOM      8  C6  UNL A   1      15.421  49.719   7.865  1.00  0.00    +0.000 C 
BRANCH    8    7
ATOM      2  C1  UNL A   1      17.138  50.550   4.540  1.00  0.00    +0.000 C 
ATOM      3  C2  UNL A   1      17.266  49.268   4.005  1.00  0.00    +0.000 C 
ATOM      4  C3  UNL A   1      16.811  48.159   4.715  1.00  0.00    +0.000 C 
ATOM      5  C4  UNL A   1      16.217  48.334   5.962  1.00  0.00    +0.000 C 
ATOM      7  C5  UNL A   1      16.047  49.617   6.516  1.00  0.00    +0.000 C 
ATOM     83  C58 UNL A   1      16.445  50.718   5.748  1.00  0.00    +0.000 C 
ATOM    117  H34 UNL A   1      16.226  51.671   6.077  1.00  0.00    +0.000 H 
ATOM     86  H3  UNL A   1      17.699  49.141   3.078  1.00  0.00    +0.000 H 
ATOM     87  H4  UNL A   1      16.916  47.213   4.319  1.00  0.00    +0.000 H 
BRANCH    2    1
ATOM      1  N1  UNL A   1      17.497  51.666   3.771  1.00  0.00    +0.000 N 
ATOM     84  H1  UNL A   1      17.444  52.569   4.159  1.00  0.00    +0.000 H 
ATOM     85  H2  UNL A   1      17.803  51.546   2.843  1.00  0.00    +0.000 H 
ENDBRANCH    2    1
BRANCH    5    6
ATOM      6  O1  UNL A   1      15.799  47.181   6.578  1.00  0.00    +0.000 O 
ATOM     88  H5  UNL A   1      16.371  46.734   7.170  1.00  0.00    +0.000 H 
ENDBRANCH    5    6
ENDBRANCH    8    7
ENDBRANCH   10    8
ENDBRANCH   11   10
ENDBRANCH   12   11
ENDBRANCH   13   12
ENDBRANCH   14   13
ENDBRANCH   15   14
ENDBRANCH   16   15
ENDBRANCH   17   16
ENDBRANCH   18   17
ENDBRANCH   20   18
ENDBRANCH   24   23
BRANCH   28   29
ATOM     33  F2  UNL A   1      13.842  56.781   8.287  1.00  0.00    +0.000 F 
ATOM     34  C25 UNL A   1      12.283  57.368   6.613  1.00  0.00    +0.000 C 
ATOM     35  F3  UNL A   1      11.742  58.290   7.421  1.00  0.00    +0.000 F 
ATOM     36  C26 UNL A   1      11.767  57.167   5.341  1.00  0.00    +0.000 C 
ATOM     37  F4  UNL A   1      10.735  57.911   4.915  1.00  0.00    +0.000 F 
ATOM     38  C27 UNL A   1      12.317  56.197   4.508  1.00  0.00    +0.000 C 
ATOM     39  F5  UNL A   1      11.788  56.021   3.288  1.00  0.00    +0.000 F 
ATOM     29  C22 UNL A   1      13.410  55.424   4.924  1.00  0.00    +0.000 C 
ATOM     30  C23 UNL A   1      13.927  55.654   6.209  1.00  0.00    +0.000 C 
ATOM     31  F1  UNL A   1      14.964  54.931   6.658  1.00  0.00    +0.000 F 
ATOM     32  C24 UNL A   1      13.357  56.606   7.049  1.00  0.00    +0.000 C 
ENDBRANCH   28   29
BRANCH   45   46
ATOM     46  C33 UNL A   1      18.384  55.280  -0.285  1.00  0.00    +0.000 C 
ATOM     47  C34 UNL A   1      19.559  55.692   0.359  1.00  0.00    +0.000 C 
ATOM     48  F6  UNL A   1      19.824  55.280   1.608  1.00  0.00    +0.000 F 
ATOM     49  C35 UNL A   1      20.449  56.561  -0.267  1.00  0.00    +0.000 C 
ATOM     50  F7  UNL A   1      21.545  56.976   0.383  1.00  0.00    +0.000 F 
ATOM     51  C36 UNL A   1      20.195  57.008  -1.555  1.00  0.00    +0.000 C 
ATOM     52  F8  UNL A   1      21.057  57.840  -2.158  1.00  0.00    +0.000 F 
ATOM     53  C37 UNL A   1      19.047  56.599  -2.216  1.00  0.00    +0.000 C 
ATOM     54  F9  UNL A   1      18.808  57.021  -3.465  1.00  0.00    +0.000 F 
ATOM     55  C38 UNL A   1      18.142  55.751  -1.584  1.00  0.00    +0.000 C 
ATOM     56  F10 UNL A   1      17.035  55.381  -2.243  1.00  0.00    +0.000 F 
ENDBRANCH   45   46
BRANCH   60   61
ATOM     65  F12 UNL A   1      19.809  46.149  -1.571  1.00  0.00    +0.000 F 
ATOM     66  C45 UNL A   1      18.079  46.628  -3.107  1.00  0.00    +0.000 C 
ATOM     67  F13 UNL A   1      18.578  45.734  -3.971  1.00  0.00    +0.000 F 
ATOM     68  C46 UNL A   1      16.946  47.358  -3.436  1.00  0.00    +0.000 C 
ATOM     69  F14 UNL A   1      16.338  47.154  -4.612  1.00  0.00    +0.000 F 
ATOM     70  C47 UNL A   1      16.442  48.305  -2.548  1.00  0.00    +0.000 C 
ATOM     71  F15 UNL A   1      15.353  49.006  -2.898  1.00  0.00    +0.000 F 
ATOM     61  C42 UNL A   1      17.048  48.524  -1.302  1.00  0.00    +0.000 C 
ATOM     62  C43 UNL A   1      18.180  47.761  -0.984  1.00  0.00    +0.000 C 
ATOM     63  F11 UNL A   1      18.806  47.951   0.187  1.00  0.00    +0.000 F 
ATOM     64  C44 UNL A   1      18.699  46.833  -1.884  1.00  0.00    +0.000 C 
ENDBRANCH   60   61
TORSDOF 17
ENDMDL
MODEL 3
REMARK VINA RESULT:      -8.8     46.817     51.723
ROOT
ATOM     24  C18 UNL A   1      53.694  19.588  11.615  1.00  0.00    +0.000 C 
ATOM     25  C19 UNL A   1      55.071  18.991  11.519  1.00  0.00    +0.000 C 
ATOM     26  N4  UNL A   1      56.041  19.005  12.396  1.00  0.00    +0.000 N 
ATOM     27  C20 UNL A   1      57.074  18.270  11.827  1.00  0.00    +0.000 C 
ATOM     28  C21 UNL A   1      58.314  18.035  12.320  1.00  0.00    +0.000 C 
ATOM     40  C28 UNL A   1      58.799  18.546  13.575  1.00  0.00    +0.000 C 
ATOM     41  C29 UNL A   1      60.061  18.420  14.129  1.00  0.00    +0.000 C 
ATOM     42  C30 UNL A   1      60.055  19.052  15.377  1.00  0.00    +0.000 C 
ATOM     43  C31 UNL A   1      58.802  19.606  15.582  1.00  0.00    +0.000 C 
ATOM     44  N5  UNL A   1      58.040  19.285  14.471  1.00  0.00    +0.000 N 
ATOM     45  C32 UNL A   1      58.334  20.370  16.709  1.00  0.00    +0.000 C 
ATOM     57  C39 UNL A   1      57.087  20.887  16.834  1.00  0.00    +0.000 C 
ATOM     58  N6  UNL A   1      56.022  20.818  15.947  1.00  0.00    +0.000 N 
ATOM     59  C40 UNL A   1      55.033  21.461  16.521  1.00  0.00    +0.000 C 
ATOM     60  C41 UNL A   1      53.647  21.727  16.004  1.00  0.00    +0.000 C 
ATOM     72  C48 UNL A   1      53.305  21.287  14.778  1.00  0.00    +0.000 C 
ATOM     73  C49 UNL A   1      52.005  21.474  14.142  1.00  0.00    +0.000 C 
ATOM     74  C50 UNL A   1      52.011  20.866  12.945  1.00  0.00    +0.000 C 
ATOM     75  C51 UNL A   1      53.330  20.276  12.714  1.00  0.00    +0.000 C 
ATOM     76  N7  UNL A   1      54.035  20.583  13.852  1.00  0.00    +0.000 N 
ATOM     77  C52 UNL A   1      55.355  21.986  17.856  1.00  0.00    +0.000 C 
ATOM     78  C53 UNL A   1      56.629  21.642  17.981  1.00  0.00    +0.000 C 
ATOM     79  C54 UNL A   1      56.598  17.790  10.548  1.00  0.00    +0.000 C 
ATOM     80  C55 UNL A   1      55.388  18.260  10.282  1.00  0.00    +0.000 C 
ATOM    105  H22 UNL A   1      60.866  17.944  13.695  1.00  0.00    +0.000 H 
ATOM    106  H23 UNL A   1      60.851  19.097  16.034  1.00  0.00    +0.000 H 
ATOM    107  H24 UNL A   1      57.099  19.542  14.337  1.00  0.00    +0.000 H 
ATOM    108  H25 UNL A   1      51.208  21.989  14.548  1.00  0.00    +0.000 H 
ATOM    109  H26 UNL A   1      51.214  20.822  12.291  1.00  0.00    +0.000 H 
ATOM    110  H27 UNL A   1      54.974  20.323  13.991  1.00  0.00    +0.000 H 
ATOM    111  H28 UNL A   1      54.748  22.488  18.521  1.00  0.00    +0.000 H 
ATOM    112  H29 UNL A   1      57.220  21.883  18.793  1.00  0.00    +0.000 H 
ATOM    113  H30 UNL A   1      57.131  17.165   9.924  1.00  0.00    +0.000 H 
ATOM    114  H31 UNL A   1      54.818  18.144   9.430  1.00  0.00    +0.000 H 
ENDROOT
BRANCH   24   23
ATOM    103  H20 UNL A   1      51.461  20.763   7.739  1.00  0.00    +0.000 H 
ATOM    104  H21 UNL A   1      53.157  21.117   9.440  1.00  0.00    +0.000 H 
ATOM     81  C56 UNL A   1      51.914  18.203  10.549  1.00  0.00    +0.000 C 
ATOM     82  C57 UNL A   1      50.991  17.966   9.532  1.00  0.00    +0.000 C 
ATOM    115  H32 UNL A   1      52.014  17.523  11.319  1.00  0.00    +0.000 H 
ATOM     20  C14 UNL A   1      50.787  18.926   8.537  1.00  0.00    +0.000 C 
ATOM     21  C15 UNL A   1      51.586  20.073   8.496  1.00  0.00    +0.000 C 
ATOM    116  H33 UNL A   1      50.459  17.082   9.513  1.00  0.00    +0.000 H 
ATOM     22  C16 UNL A   1      52.552  20.282   9.482  1.00  0.00    +0.000 C 
ATOM     23  C17 UNL A   1      52.706  19.361  10.531  1.00  0.00    +0.000 C 
BRANCH   20   18
ATOM     18  C13 UNL A   1      49.755  18.737   7.492  1.00  0.00    +0.000 C 
ATOM     19  O3  UNL A   1      49.290  17.625   7.291  1.00  0.00    +0.000 O 
BRANCH   18   17
ATOM     17  N3  UNL A   1      49.327  19.811   6.748  1.00  0.00    +0.000 N 
ATOM    102  H19 UNL A   1      49.345  20.680   7.210  1.00  0.00    +0.000 H 
BRANCH   17   16
ATOM    100  H17 UNL A   1      49.562  20.371   4.774  1.00  0.00    +0.000 H 
ATOM    101  H18 UNL A   1      48.740  18.831   5.040  1.00  0.00    +0.000 H 
ATOM     16  C12 UNL A   1      48.851  19.841   5.375  1.00  0.00    +0.000 C 
BRANCH   16   15
ATOM     98  H15 UNL A   1      47.211  20.878   6.228  1.00  0.00    +0.000 H 
ATOM     99  H16 UNL A   1      47.618  21.325   4.549  1.00  0.00    +0.000 H 
ATOM     15  C11 UNL A   1      47.495  20.531   5.256  1.00  0.00    +0.000 C 
BRANCH   15   14
ATOM     97  H14 UNL A   1      45.857  19.262   5.576  1.00  0.00    +0.000 H 
ATOM     14  C10 UNL A   1      46.372  19.640   4.719  1.00  0.00    +0.000 C 
ATOM     96  H13 UNL A   1      46.817  18.875   4.116  1.00  0.00    +0.000 H 
BRANCH   14   13
ATOM     13  C9  UNL A   1      45.317  20.360   3.869  1.00  0.00    +0.000 C 
ATOM     94  H11 UNL A   1      44.424  20.446   4.453  1.00  0.00    +0.000 H 
ATOM     95  H12 UNL A   1      45.743  21.305   3.602  1.00  0.00    +0.000 H 
BRANCH   13   12
ATOM     92  H9  UNL A   1      45.800  19.092   2.222  1.00  0.00    +0.000 H 
ATOM     12  C8  UNL A   1      44.956  19.664   2.546  1.00  0.00    +0.000 C 
ATOM     93  H10 UNL A   1      44.100  19.051   2.735  1.00  0.00    +0.000 H 
BRANCH   12   11
ATOM     90  H7  UNL A   1      45.083  21.572   1.590  1.00  0.00    +0.000 H 
ATOM     11  C7  UNL A   1      44.578  20.643   1.432  1.00  0.00    +0.000 C 
ATOM     91  H8  UNL A   1      44.867  20.230   0.488  1.00  0.00    +0.000 H 
BRANCH   11   10
ATOM     89  H6  UNL A   1      42.866  21.571   2.066  1.00  0.00    +0.000 H 
ATOM     10  N2  UNL A   1      43.146  20.868   1.435  1.00  0.00    +0.000 N 
BRANCH   10    8
ATOM      9  O2  UNL A   1      42.368  19.742  -0.311  1.00  0.00    +0.000 O 
ATOM      8  C6  UNL A   1      42.098  20.316   0.749  1.00  0.00    +0.000 C 
BRANCH    8    7
ATOM      2  C1  UNL A   1      38.737  19.891   2.542  1.00  0.00    +0.000 C 
ATOM      3  C2  UNL A   1      37.952  20.775   1.801  1.00  0.00    +0.000 C 
ATOM      4  C3  UNL A   1      38.508  21.498   0.748  1.00  0.00    +0.000 C 
ATOM      5  C4  UNL A   1      39.853  21.330   0.429  1.00  0.00    +0.000 C 
ATOM      7  C5  UNL A   1      40.663  20.424   1.138  1.00  0.00    +0.000 C 
ATOM     83  C58 UNL A   1      40.060  19.656   2.141  1.00  0.00    +0.000 C 
ATOM    117  H34 UNL A   1      40.600  18.903   2.597  1.00  0.00    +0.000 H 
ATOM     86  H3  UNL A   1      36.954  20.893   2.034  1.00  0.00    +0.000 H 
ATOM     87  H4  UNL A   1      37.926  22.157   0.209  1.00  0.00    +0.000 H 
BRANCH    2    1
ATOM      1  N1  UNL A   1      38.143  19.087   3.525  1.00  0.00    +0.000 N 
ATOM     84  H1  UNL A   1      38.622  18.301   3.873  1.00  0.00    +0.000 H 
ATOM     85  H2  UNL A   1      37.247  19.309   3.867  1.00  0.00    +0.000 H 
ENDBRANCH    2    1
BRANCH    5    6
ATOM      6  O1  UNL A   1      40.303  22.084  -0.626  1.00  0.00    +0.000 O 
ATOM     88  H5  UNL A   1      41.198  22.025  -0.894  1.00  0.00    +0.000 H 
ENDBRANCH    5    6
ENDBRANCH    8    7
ENDBRANCH   10    8
ENDBRANCH   11   10
ENDBRANCH   12   11
ENDBRANCH   13   12
ENDBRANCH   14   13
ENDBRANCH   15   14
ENDBRANCH   16   15
ENDBRANCH   17   16
ENDBRANCH   18   17
ENDBRANCH   20   18
ENDBRANCH   24   23
BRANCH   28   29
ATOM     33  F2  UNL A   1      61.753  17.521   8.868  1.00  0.00    +0.000 F 
ATOM     34  C25 UNL A   1      61.030  15.596  10.028  1.00  0.00    +0.000 C 
ATOM     35  F3  UNL A   1      61.878  14.835   9.323  1.00  0.00    +0.000 F 
ATOM     36  C26 UNL A   1      60.202  15.017  10.980  1.00  0.00    +0.000 C 
ATOM     37  F4  UNL A   1      60.266  13.697  11.206  1.00  0.00    +0.000 F 
ATOM     38  C27 UNL A   1      59.309  15.804  11.701  1.00  0.00    +0.000 C 
ATOM     39  F5  UNL A   1      58.515  15.213  12.606  1.00  0.00    +0.000 F 
ATOM     29  C22 UNL A   1      59.241  17.190  11.498  1.00  0.00    +0.000 C 
ATOM     30  C23 UNL A   1      60.098  17.757  10.542  1.00  0.00    +0.000 C 
ATOM     31  F1  UNL A   1      60.063  19.076  10.302  1.00  0.00    +0.000 F 
ATOM     32  C24 UNL A   1      60.972  16.963   9.804  1.00  0.00    +0.000 C 
ENDBRANCH   28   29
BRANCH   45   46
ATOM     46  C33 UNL A   1      59.301  20.635  17.824  1.00  0.00    +0.000 C 
ATOM     47  C34 UNL A   1      59.462  19.735  18.886  1.00  0.00    +0.000 C 
ATOM     48  F6  UNL A   1      58.704  18.630  18.955  1.00  0.00    +0.000 F 
ATOM     49  C35 UNL A   1      60.379  19.987  19.904  1.00  0.00    +0.000 C 
ATOM     50  F7  UNL A   1      60.486  19.134  20.932  1.00  0.00    +0.000 F 
ATOM     51  C36 UNL A   1      61.169  21.126  19.861  1.00  0.00    +0.000 C 
ATOM     52  F8  UNL A   1      62.055  21.363  20.839  1.00  0.00    +0.000 F 
ATOM     53  C37 UNL A   1      61.038  22.021  18.811  1.00  0.00    +0.000 C 
ATOM     54  F9  UNL A   1      61.810  23.115  18.763  1.00  0.00    +0.000 F 
ATOM     55  C38 UNL A   1      60.105  21.786  17.806  1.00  0.00    +0.000 C 
ATOM     56  F10 UNL A   1      59.992  22.674  16.808  1.00  0.00    +0.000 F 
ENDBRANCH   45   46
BRANCH   60   61
ATOM     65  F12 UNL A   1      51.455  25.915  17.194  1.00  0.00    +0.000 F 
ATOM     66  C45 UNL A   1      50.842  23.962  18.372  1.00  0.00    +0.000 C 
ATOM     67  F13 UNL A   1      49.981  24.665  19.121  1.00  0.00    +0.000 F 
ATOM     68  C46 UNL A   1      50.999  22.600  18.585  1.00  0.00    +0.000 C 
ATOM     69  F14 UNL A   1      50.275  21.983  19.528  1.00  0.00    +0.000 F 
ATOM     70  C47 UNL A   1      51.912  21.874  17.824  1.00  0.00    +0.000 C 
ATOM     71  F15 UNL A   1      52.053  20.561  18.061  1.00  0.00    +0.000 F 
ATOM     61  C42 UNL A   1      52.668  22.492  16.818  1.00  0.00    +0.000 C 
ATOM     62  C43 UNL A   1      52.477  23.864  16.607  1.00  0.00    +0.000 C 
ATOM     63  F11 UNL A   1      53.194  24.503  15.670  1.00  0.00    +0.000 F 
ATOM     64  C44 UNL A   1      51.584  24.595  17.387  1.00  0.00    +0.000 C 
ENDBRANCH   60   61
TORSDOF 17
ENDMDL
MODEL 4
REMARK VINA RESULT:      -8.8      1.553      2.335
ROOT
ATOM     24  C18 UNL A   1      15.051  54.866   4.434  1.00  0.00    +0.000 C 
ATOM     25  C19 UNL A   1      15.760  55.140   3.137  1.00  0.00    +0.000 C 
ATOM     26  N4  UNL A   1      16.091  54.307   2.184  1.00  0.00    +0.000 N 
ATOM     27  C20 UNL A   1      16.680  55.083   1.193  1.00  0.00    +0.000 C 
ATOM     28  C21 UNL A   1      17.234  54.681   0.024  1.00  0.00    +0.000 C 
ATOM     40  C28 UNL A   1      17.324  53.309  -0.402  1.00  0.00    +0.000 C 
ATOM     41  C29 UNL A   1      17.928  52.796  -1.537  1.00  0.00    +0.000 C 
ATOM     42  C30 UNL A   1      17.732  51.411  -1.547  1.00  0.00    +0.000 C 
ATOM     43  C31 UNL A   1      17.042  51.057  -0.399  1.00  0.00    +0.000 C 
ATOM     44  N5  UNL A   1      16.794  52.232   0.293  1.00  0.00    +0.000 N 
ATOM     45  C32 UNL A   1      16.637  49.746   0.036  1.00  0.00    +0.000 C 
ATOM     57  C39 UNL A   1      15.967  49.479   1.183  1.00  0.00    +0.000 C 
ATOM     58  N6  UNL A   1      15.541  50.358   2.169  1.00  0.00    +0.000 N 
ATOM     59  C40 UNL A   1      14.932  49.623   3.068  1.00  0.00    +0.000 C 
ATOM     60  C41 UNL A   1      14.300  50.043   4.367  1.00  0.00    +0.000 C 
ATOM     72  C48 UNL A   1      14.340  51.338   4.730  1.00  0.00    +0.000 C 
ATOM     73  C49 UNL A   1      13.776  51.891   5.958  1.00  0.00    +0.000 C 
ATOM     74  C50 UNL A   1      13.963  53.221   5.966  1.00  0.00    +0.000 C 
ATOM     75  C51 UNL A   1      14.692  53.609   4.758  1.00  0.00    +0.000 C 
ATOM     76  N7  UNL A   1      14.880  52.425   4.088  1.00  0.00    +0.000 N 
ATOM     77  C52 UNL A   1      14.877  48.192   2.736  1.00  0.00    +0.000 C 
ATOM     78  C53 UNL A   1      15.555  48.154   1.598  1.00  0.00    +0.000 C 
ATOM     79  C54 UNL A   1      16.624  56.457   1.642  1.00  0.00    +0.000 C 
ATOM     80  C55 UNL A   1      16.121  56.540   2.865  1.00  0.00    +0.000 C 
ATOM    105  H22 UNL A   1      18.434  53.341  -2.251  1.00  0.00    +0.000 H 
ATOM    106  H23 UNL A   1      18.048  50.762  -2.285  1.00  0.00    +0.000 H 
ATOM    107  H24 UNL A   1      16.314  52.293   1.150  1.00  0.00    +0.000 H 
ATOM    108  H25 UNL A   1      13.308  51.349   6.701  1.00  0.00    +0.000 H 
ATOM    109  H26 UNL A   1      13.645  53.867   6.705  1.00  0.00    +0.000 H 
ATOM    110  H27 UNL A   1      15.356  52.361   3.229  1.00  0.00    +0.000 H 
ATOM    111  H28 UNL A   1      14.428  47.421   3.253  1.00  0.00    +0.000 H 
ATOM    112  H29 UNL A   1      15.765  47.289   1.074  1.00  0.00    +0.000 H 
ATOM    113  H30 UNL A   1      16.935  57.267   1.083  1.00  0.00    +0.000 H 
ATOM    114  H31 UNL A   1      16.012  57.369   3.469  1.00  0.00    +0.000 H 
ENDROOT
BRANCH   24   23
ATOM    103  H20 UNL A   1      12.206  58.178   5.961  1.00  0.00    +0.000 H 
ATOM    104  H21 UNL A   1      12.739  56.280   4.544  1.00  0.00    +0.000 H 
ATOM     81  C56 UNL A   1      15.592  56.425   6.306  1.00  0.00    +0.000 C 
ATOM     82  C57 UNL A   1      15.255  57.467   7.168  1.00  0.00    +0.000 C 
ATOM    115  H32 UNL A   1      16.516  55.972   6.385  1.00  0.00    +0.000 H 
ATOM     20  C14 UNL A   1      14.043  58.143   7.006  1.00  0.00    +0.000 C 
ATOM     21  C15 UNL A   1      13.117  57.703   6.054  1.00  0.00    +0.000 C 
ATOM    116  H33 UNL A   1      15.901  57.739   7.925  1.00  0.00    +0.000 H 
ATOM     22  C16 UNL A   1      13.430  56.619   5.230  1.00  0.00    +0.000 C 
ATOM     23  C17 UNL A   1      14.680  55.988   5.332  1.00  0.00    +0.000 C 
BRANCH   20   18
ATOM     18  C13 UNL A   1      13.696  59.306   7.854  1.00  0.00    +0.000 C 
ATOM     19  O3  UNL A   1      14.113  60.418   7.561  1.00  0.00    +0.000 O 
BRANCH   18   17
ATOM     17  N3  UNL A   1      12.911  59.133   8.969  1.00  0.00    +0.000 N 
ATOM    102  H19 UNL A   1      13.391  59.125   9.827  1.00  0.00    +0.000 H 
BRANCH   17   16
ATOM    100  H17 UNL A   1      11.136  59.314  10.008  1.00  0.00    +0.000 H 
ATOM    101  H18 UNL A   1      11.020  59.514   8.258  1.00  0.00    +0.000 H 
ATOM     16  C12 UNL A   1      11.470  58.959   9.055  1.00  0.00    +0.000 C 
BRANCH   16   15
ATOM     98  H15 UNL A   1      10.055  57.393   9.251  1.00  0.00    +0.000 H 
ATOM     99  H16 UNL A   1      11.172  57.257   7.865  1.00  0.00    +0.000 H 
ATOM     15  C11 UNL A   1      11.062  57.497   8.903  1.00  0.00    +0.000 C 
BRANCH   15   14
ATOM     97  H14 UNL A   1      11.312  56.071  10.420  1.00  0.00    +0.000 H 
ATOM     14  C10 UNL A   1      11.941  56.507   9.673  1.00  0.00    +0.000 C 
ATOM     96  H13 UNL A   1      12.773  57.047  10.075  1.00  0.00    +0.000 H 
BRANCH   14   13
ATOM     13  C9  UNL A   1      12.490  55.339   8.844  1.00  0.00    +0.000 C 
ATOM     94  H11 UNL A   1      11.799  54.525   8.920  1.00  0.00    +0.000 H 
ATOM     95  H12 UNL A   1      12.603  55.709   7.846  1.00  0.00    +0.000 H 
BRANCH   13   12
ATOM     92  H9  UNL A   1      14.242  54.166   8.515  1.00  0.00    +0.000 H 
ATOM     12  C8  UNL A   1      13.876  54.829   9.271  1.00  0.00    +0.000 C 
ATOM     93  H10 UNL A   1      14.503  55.686   9.396  1.00  0.00    +0.000 H 
BRANCH   12   11
ATOM     90  H7  UNL A   1      14.865  53.914  10.931  1.00  0.00    +0.000 H 
ATOM     11  C7  UNL A   1      13.859  54.080  10.606  1.00  0.00    +0.000 C 
ATOM     91  H8  UNL A   1      13.336  54.666  11.332  1.00  0.00    +0.000 H 
BRANCH   11   10
ATOM     89  H6  UNL A   1      12.389  52.716  11.019  1.00  0.00    +0.000 H 
ATOM     10  N2  UNL A   1      13.188  52.804  10.451  1.00  0.00    +0.000 N 
BRANCH   10    8
ATOM      9  O2  UNL A   1      12.480  51.275   9.007  1.00  0.00    +0.000 O 
ATOM      8  C6  UNL A   1      13.425  51.696   9.683  1.00  0.00    +0.000 C 
BRANCH    8    7
ATOM      2  C1  UNL A   1      17.057  50.610   9.111  1.00  0.00    +0.000 C 
ATOM      3  C2  UNL A   1      17.045  49.374   9.758  1.00  0.00    +0.000 C 
ATOM      4  C3  UNL A   1      15.885  48.910  10.372  1.00  0.00    +0.000 C 
ATOM      5  C4  UNL A   1      14.727  49.682  10.332  1.00  0.00    +0.000 C 
ATOM      7  C5  UNL A   1      14.697  50.920   9.663  1.00  0.00    +0.000 C 
ATOM     83  C58 UNL A   1      15.856  51.326   8.991  1.00  0.00    +0.000 C 
ATOM    117  H34 UNL A   1      15.828  52.170   8.396  1.00  0.00    +0.000 H 
ATOM     86  H3  UNL A   1      17.902  48.800   9.780  1.00  0.00    +0.000 H 
ATOM     87  H4  UNL A   1      15.884  47.999  10.856  1.00  0.00    +0.000 H 
BRANCH    2    1
ATOM      1  N1  UNL A   1      18.195  51.017   8.403  1.00  0.00    +0.000 N 
ATOM     84  H1  UNL A   1      19.082  50.673   8.656  1.00  0.00    +0.000 H 
ATOM     85  H2  UNL A   1      18.108  51.647   7.651  1.00  0.00    +0.000 H 
ENDBRANCH    2    1
BRANCH    5    6
ATOM      6  O1  UNL A   1      13.637  49.136  10.963  1.00  0.00    +0.000 O 
ATOM     88  H5  UNL A   1      13.664  48.249  11.261  1.00  0.00    +0.000 H 
ENDBRANCH    5    6
ENDBRANCH    8    7
ENDBRANCH   10    8
ENDBRANCH   11   10
ENDBRANCH   12   11
ENDBRANCH   13   12
ENDBRANCH   14   13
ENDBRANCH   15   14
ENDBRANCH   16   15
ENDBRANCH   17   16
ENDBRANCH   18   17
ENDBRANCH   20   18
ENDBRANCH   24   23
BRANCH   28   29
ATOM     33  F2  UNL A   1      16.764  57.941  -3.604  1.00  0.00    +0.000 F 
ATOM     34  C25 UNL A   1      18.847  57.777  -2.504  1.00  0.00    +0.000 C 
ATOM     35  F3  UNL A   1      19.350  58.744  -3.283  1.00  0.00    +0.000 F 
ATOM     36  C26 UNL A   1      19.645  57.171  -1.544  1.00  0.00    +0.000 C 
ATOM     37  F4  UNL A   1      20.916  57.567  -1.385  1.00  0.00    +0.000 F 
ATOM     38  C27 UNL A   1      19.128  56.154  -0.747  1.00  0.00    +0.000 C 
ATOM     39  F5  UNL A   1      19.927  55.581   0.165  1.00  0.00    +0.000 F 
ATOM     29  C22 UNL A   1      17.795  55.739  -0.880  1.00  0.00    +0.000 C 
ATOM     30  C23 UNL A   1      17.001  56.376  -1.846  1.00  0.00    +0.000 C 
ATOM     31  F1  UNL A   1      15.724  56.006  -2.021  1.00  0.00    +0.000 F 
ATOM     32  C24 UNL A   1      17.529  57.374  -2.660  1.00  0.00    +0.000 C 
ENDBRANCH   28   29
BRANCH   45   46
ATOM     46  C33 UNL A   1      17.001  48.579  -0.834  1.00  0.00    +0.000 C 
ATOM     47  C34 UNL A   1      16.224  48.220  -1.944  1.00  0.00    +0.000 C 
ATOM     48  F6  UNL A   1      15.096  48.890  -2.223  1.00  0.00    +0.000 F 
ATOM     49  C35 UNL A   1      16.587  47.146  -2.752  1.00  0.00    +0.000 C 
ATOM     50  F7  UNL A   1      15.807  46.793  -3.784  1.00  0.00    +0.000 F 
ATOM     51  C36 UNL A   1      17.744  46.431  -2.482  1.00  0.00    +0.000 C 
ATOM     52  F8  UNL A   1      18.094  45.401  -3.265  1.00  0.00    +0.000 F 
ATOM     53  C37 UNL A   1      18.536  46.780  -1.398  1.00  0.00    +0.000 C 
ATOM     54  F9  UNL A   1      19.661  46.098  -1.144  1.00  0.00    +0.000 F 
ATOM     55  C38 UNL A   1      18.163  47.837  -0.573  1.00  0.00    +0.000 C 
ATOM     56  F10 UNL A   1      18.942  48.145   0.474  1.00  0.00    +0.000 F 
ENDBRANCH   45   46
BRANCH   60   61
ATOM     65  F12 UNL A   1      14.508  46.950   8.128  1.00  0.00    +0.000 F 
ATOM     66  C45 UNL A   1      12.478  47.116   6.933  1.00  0.00    +0.000 C 
ATOM     67  F13 UNL A   1      11.918  46.191   7.725  1.00  0.00    +0.000 F 
ATOM     68  C46 UNL A   1      11.748  47.679   5.897  1.00  0.00    +0.000 C 
ATOM     69  F14 UNL A   1      10.476  47.311   5.697  1.00  0.00    +0.000 F 
ATOM     70  C47 UNL A   1      12.337  48.623   5.059  1.00  0.00    +0.000 C 
ATOM     71  F15 UNL A   1      11.613  49.140   4.055  1.00  0.00    +0.000 F 
ATOM     61  C42 UNL A   1      13.661  49.040   5.257  1.00  0.00    +0.000 C 
ATOM     62  C43 UNL A   1      14.372  48.472   6.323  1.00  0.00    +0.000 C 
ATOM     63  F11 UNL A   1      15.648  48.825   6.539  1.00  0.00    +0.000 F 
ATOM     64  C44 UNL A   1      13.791  47.509   7.144  1.00  0.00    +0.000 C 
ENDBRANCH   60   61
TORSDOF 17
ENDMDL
MODEL 5
REMARK VINA RESULT:      -8.8     65.600     71.143
ROOT
ATOM     24  C18 UNL A   1      29.184 -13.788  30.763  1.00  0.00    +0.000 C 
ATOM     25  C19 UNL A   1      28.951 -13.919  32.242  1.00  0.00    +0.000 C 
ATOM     26  N4  UNL A   1      27.932 -13.517  32.957  1.00  0.00    +0.000 N 
ATOM     27  C20 UNL A   1      28.196 -13.932  34.257  1.00  0.00    +0.000 C 
ATOM     28  C21 UNL A   1      27.467 -13.714  35.377  1.00  0.00    +0.000 C 
ATOM     40  C28 UNL A   1      26.239 -12.962  35.413  1.00  0.00    +0.000 C 
ATOM     41  C29 UNL A   1      25.464 -12.628  36.510  1.00  0.00    +0.000 C 
ATOM     42  C30 UNL A   1      24.346 -11.921  36.055  1.00  0.00    +0.000 C 
ATOM     43  C31 UNL A   1      24.446 -11.780  34.681  1.00  0.00    +0.000 C 
ATOM     44  N5  UNL A   1      25.610 -12.427  34.299  1.00  0.00    +0.000 N 
ATOM     45  C32 UNL A   1      23.547 -11.107  33.781  1.00  0.00    +0.000 C 
ATOM     57  C39 UNL A   1      23.718 -11.006  32.440  1.00  0.00    +0.000 C 
ATOM     58  N6  UNL A   1      24.754 -11.492  31.654  1.00  0.00    +0.000 N 
ATOM     59  C40 UNL A   1      24.463 -11.149  30.423  1.00  0.00    +0.000 C 
ATOM     60  C41 UNL A   1      25.246 -11.388  29.161  1.00  0.00    +0.000 C 
ATOM     72  C48 UNL A   1      26.431 -12.023  29.232  1.00  0.00    +0.000 C 
ATOM     73  C49 UNL A   1      27.302 -12.319  28.098  1.00  0.00    +0.000 C 
ATOM     74  C50 UNL A   1      28.374 -12.999  28.536  1.00  0.00    +0.000 C 
ATOM     75  C51 UNL A   1      28.282 -13.155  29.988  1.00  0.00    +0.000 C 
ATOM     76  N7  UNL A   1      27.100 -12.537  30.315  1.00  0.00    +0.000 N 
ATOM     77  C52 UNL A   1      23.188 -10.431  30.286  1.00  0.00    +0.000 C 
ATOM     78  C53 UNL A   1      22.795 -10.337  31.548  1.00  0.00    +0.000 C 
ATOM     79  C54 UNL A   1      29.450 -14.652  34.225  1.00  0.00    +0.000 C 
ATOM     80  C55 UNL A   1      29.989 -14.620  33.014  1.00  0.00    +0.000 C 
ATOM    105  H22 UNL A   1      25.675 -12.860  37.492  1.00  0.00    +0.000 H 
ATOM    106  H23 UNL A   1      23.577 -11.565  36.644  1.00  0.00    +0.000 H 
ATOM    107  H24 UNL A   1      25.942 -12.497  33.375  1.00  0.00    +0.000 H 
ATOM    108  H25 UNL A   1      27.123 -12.051  27.118  1.00  0.00    +0.000 H 
ATOM    109  H26 UNL A   1      29.141 -13.354  27.944  1.00  0.00    +0.000 H 
ATOM    110  H27 UNL A   1      26.764 -12.470  31.237  1.00  0.00    +0.000 H 
ATOM    111  H28 UNL A   1      22.721 -10.090  29.431  1.00  0.00    +0.000 H 
ATOM    112  H29 UNL A   1      21.940  -9.847  31.857  1.00  0.00    +0.000 H 
ATOM    113  H30 UNL A   1      29.871 -15.129  35.038  1.00  0.00    +0.000 H 
ATOM    114  H31 UNL A   1      30.899 -14.988  32.697  1.00  0.00    +0.000 H 
ENDROOT
BRANCH   24   23
ATOM    103  H20 UNL A   1      33.594 -13.816  29.366  1.00  0.00    +0.000 H 
ATOM    104  H21 UNL A   1      31.695 -12.798  30.486  1.00  0.00    +0.000 H 
ATOM     81  C56 UNL A   1      30.277 -15.713  29.611  1.00  0.00    +0.000 C 
ATOM     82  C57 UNL A   1      31.388 -16.323  29.034  1.00  0.00    +0.000 C 
ATOM    115  H32 UNL A   1      29.378 -16.217  29.652  1.00  0.00    +0.000 H 
ATOM     20  C14 UNL A   1      32.583 -15.611  28.895  1.00  0.00    +0.000 C 
ATOM     21  C15 UNL A   1      32.700 -14.326  29.435  1.00  0.00    +0.000 C 
ATOM    116  H33 UNL A   1      31.330 -17.301  28.709  1.00  0.00    +0.000 H 
ATOM     22  C16 UNL A   1      31.603 -13.737  30.067  1.00  0.00    +0.000 C 
ATOM     23  C17 UNL A   1      30.376 -14.415  30.137  1.00  0.00    +0.000 C 
BRANCH   20   18
ATOM     18  C13 UNL A   1      33.754 -16.207  28.211  1.00  0.00    +0.000 C 
ATOM     19  O3  UNL A   1      34.398 -17.087  28.763  1.00  0.00    +0.000 O 
BRANCH   18   17
ATOM     17  N3  UNL A   1      34.116 -15.766  26.960  1.00  0.00    +0.000 N 
ATOM    102  H19 UNL A   1      35.081 -15.777  26.771  1.00  0.00    +0.000 H 
BRANCH   17   16
ATOM    100  H17 UNL A   1      33.657 -15.648  24.950  1.00  0.00    +0.000 H 
ATOM    101  H18 UNL A   1      32.277 -15.642  26.051  1.00  0.00    +0.000 H 
ATOM     16  C12 UNL A   1      33.270 -15.284  25.880  1.00  0.00    +0.000 C 
BRANCH   16   15
ATOM     98  H15 UNL A   1      33.020 -13.464  24.822  1.00  0.00    +0.000 H 
ATOM     99  H16 UNL A   1      32.457 -13.457  26.515  1.00  0.00    +0.000 H 
ATOM     15  C11 UNL A   1      33.222 -13.760  25.830  1.00  0.00    +0.000 C 
BRANCH   15   14
ATOM     97  H14 UNL A   1      34.969 -12.682  25.399  1.00  0.00    +0.000 H 
ATOM     14  C10 UNL A   1      34.510 -13.066  26.285  1.00  0.00    +0.000 C 
ATOM     96  H13 UNL A   1      35.110 -13.788  26.799  1.00  0.00    +0.000 H 
BRANCH   14   13
ATOM     13  C9  UNL A   1      34.310 -11.864  27.217  1.00  0.00    +0.000 C 
ATOM     94  H11 UNL A   1      33.511 -12.096  27.891  1.00  0.00    +0.000 H 
ATOM     95  H12 UNL A   1      35.249 -11.709  27.707  1.00  0.00    +0.000 H 
BRANCH   13   12
ATOM     92  H9  UNL A   1      34.794  -9.869  26.636  1.00  0.00    +0.000 H 
ATOM     12  C8  UNL A   1      33.971 -10.540  26.513  1.00  0.00    +0.000 C 
ATOM     93  H10 UNL A   1      33.785 -10.768  25.485  1.00  0.00    +0.000 H 
BRANCH   12   11
ATOM     90  H7  UNL A   1      32.090  -9.559  26.250  1.00  0.00    +0.000 H 
ATOM     11  C7  UNL A   1      32.710  -9.869  27.064  1.00  0.00    +0.000 C 
ATOM     91  H8  UNL A   1      32.180 -10.566  27.678  1.00  0.00    +0.000 H 
BRANCH   11   10
ATOM     89  H6  UNL A   1      34.009  -8.436  27.737  1.00  0.00    +0.000 H 
ATOM     10  N2  UNL A   1      33.072  -8.712  27.859  1.00  0.00    +0.000 N 
BRANCH   10    8
ATOM      9  O2  UNL A   1      33.014  -6.973  29.236  1.00  0.00    +0.000 O 
ATOM      8  C6  UNL A   1      32.390  -7.919  28.743  1.00  0.00    +0.000 C 
BRANCH    8    7
ATOM      2  C1  UNL A   1      29.337  -9.089  30.743  1.00  0.00    +0.000 C 
ATOM      3  C2  UNL A   1      28.319  -8.467  30.020  1.00  0.00    +0.000 C 
ATOM      4  C3  UNL A   1      28.622  -7.678  28.913  1.00  0.00    +0.000 C 
ATOM      5  C4  UNL A   1      29.948  -7.518  28.521  1.00  0.00    +0.000 C 
ATOM      7  C5  UNL A   1      30.995  -8.156  29.212  1.00  0.00    +0.000 C 
ATOM     83  C58 UNL A   1      30.656  -9.003  30.274  1.00  0.00    +0.000 C 
ATOM    117  H34 UNL A   1      31.390  -9.574  30.722  1.00  0.00    +0.000 H 
ATOM     86  H3  UNL A   1      27.336  -8.592  30.307  1.00  0.00    +0.000 H 
ATOM     87  H4  UNL A   1      27.867  -7.213  28.386  1.00  0.00    +0.000 H 
BRANCH    2    1
ATOM      1  N1  UNL A   1      29.014  -9.968  31.786  1.00  0.00    +0.000 N 
ATOM     84  H1  UNL A   1      28.889  -9.624  32.699  1.00  0.00    +0.000 H 
ATOM     85  H2  UNL A   1      28.913 -10.930  31.605  1.00  0.00    +0.000 H 
ENDBRANCH    2    1
BRANCH    5    6
ATOM      6  O1  UNL A   1      30.142  -6.726  27.417  1.00  0.00    +0.000 O 
ATOM     88  H5  UNL A   1      30.949  -6.771  26.945  1.00  0.00    +0.000 H 
ENDBRANCH    5    6
ENDBRANCH    8    7
ENDBRANCH   10    8
ENDBRANCH   11   10
ENDBRANCH   12   11
ENDBRANCH   13   12
ENDBRANCH   14   13
ENDBRANCH   15   14
ENDBRANCH   16   15
ENDBRANCH   17   16
ENDBRANCH   18   17
ENDBRANCH   20   18
ENDBRANCH   24   23
BRANCH   28   29
ATOM     33  F2  UNL A   1      30.431 -13.582  39.277  1.00  0.00    +0.000 F 
ATOM     34  C25 UNL A   1      28.865 -15.342  39.115  1.00  0.00    +0.000 C 
ATOM     35  F3  UNL A   1      29.292 -15.847  40.281  1.00  0.00    +0.000 F 
ATOM     36  C26 UNL A   1      27.854 -15.978  38.409  1.00  0.00    +0.000 C 
ATOM     37  F4  UNL A   1      27.293 -17.091  38.904  1.00  0.00    +0.000 F 
ATOM     38  C27 UNL A   1      27.423 -15.464  37.190  1.00  0.00    +0.000 C 
ATOM     39  F5  UNL A   1      26.451 -16.108  36.527  1.00  0.00    +0.000 F 
ATOM     29  C22 UNL A   1      27.980 -14.289  36.664  1.00  0.00    +0.000 C 
ATOM     30  C23 UNL A   1      28.990 -13.653  37.402  1.00  0.00    +0.000 C 
ATOM     31  F1  UNL A   1      29.563 -12.533  36.937  1.00  0.00    +0.000 F 
ATOM     32  C24 UNL A   1      29.438 -14.184  38.609  1.00  0.00    +0.000 C 
ENDBRANCH   28   29
BRANCH   45   46
ATOM     46  C33 UNL A   1      22.334 -10.447  34.369  1.00  0.00    +0.000 C 
ATOM     47  C34 UNL A   1      21.074 -11.059  34.330  1.00  0.00    +0.000 C 
ATOM     48  F6  UNL A   1      20.915 -12.238  33.709  1.00  0.00    +0.000 F 
ATOM     49  C35 UNL A   1      19.963 -10.441  34.898  1.00  0.00    +0.000 C 
ATOM     50  F7  UNL A   1      18.758 -11.023  34.812  1.00  0.00    +0.000 F 
ATOM     51  C36 UNL A   1      20.098  -9.218  35.538  1.00  0.00    +0.000 C 
ATOM     52  F8  UNL A   1      19.027  -8.628  36.090  1.00  0.00    +0.000 F 
ATOM     53  C37 UNL A   1      21.339  -8.604  35.603  1.00  0.00    +0.000 C 
ATOM     54  F9  UNL A   1      21.473  -7.429  36.232  1.00  0.00    +0.000 F 
ATOM     55  C38 UNL A   1      22.447  -9.206  35.014  1.00  0.00    +0.000 C 
ATOM     56  F10 UNL A   1      23.633  -8.584  35.082  1.00  0.00    +0.000 F 
ENDBRANCH   45   46
BRANCH   60   61
ATOM     65  F12 UNL A   1      22.470 -11.975  25.198  1.00  0.00    +0.000 F 
ATOM     66  C45 UNL A   1      23.788 -10.022  25.356  1.00  0.00    +0.000 C 
ATOM     67  F13 UNL A   1      23.345  -9.607  24.161  1.00  0.00    +0.000 F 
ATOM     68  C46 UNL A   1      24.705  -9.257  26.062  1.00  0.00    +0.000 C 
ATOM     69  F14 UNL A   1      25.135  -8.093  25.557  1.00  0.00    +0.000 F 
ATOM     70  C47 UNL A   1      25.185  -9.700  27.292  1.00  0.00    +0.000 C 
ATOM     71  F15 UNL A   1      26.082  -8.947  27.946  1.00  0.00    +0.000 F 
ATOM     61  C42 UNL A   1      24.738 -10.905  27.852  1.00  0.00    +0.000 C 
ATOM     62  C43 UNL A   1      23.796 -11.650  27.130  1.00  0.00    +0.000 C 
ATOM     63  F11 UNL A   1      23.355 -12.820  27.615  1.00  0.00    +0.000 F 
ATOM     64  C44 UNL A   1      23.337 -11.220  25.887  1.00  0.00    +0.000 C 
ENDBRANCH   60   61
TORSDOF 17
ENDMDL
MODEL 6
REMARK VINA RESULT:      -8.7     44.540     50.811
ROOT
ATOM     24  C18 UNL A   1      10.809   2.721  21.432  1.00  0.00    +0.000 C 
ATOM     25  C19 UNL A   1       9.888   3.622  22.206  1.00  0.00    +0.000 C 
ATOM     26  N4  UNL A   1       9.453   4.818  21.903  1.00  0.00    +0.000 N 
ATOM     27  C20 UNL A   1       8.594   5.180  22.933  1.00  0.00    +0.000 C 
ATOM     28  C21 UNL A   1       7.929   6.347  23.108  1.00  0.00    +0.000 C 
ATOM     40  C28 UNL A   1       8.019   7.473  22.215  1.00  0.00    +0.000 C 
ATOM     41  C29 UNL A   1       7.438   8.723  22.342  1.00  0.00    +0.000 C 
ATOM     42  C30 UNL A   1       7.777   9.478  21.215  1.00  0.00    +0.000 C 
ATOM     43  C31 UNL A   1       8.602   8.713  20.406  1.00  0.00    +0.000 C 
ATOM     44  N5  UNL A   1       8.739   7.483  21.030  1.00  0.00    +0.000 N 
ATOM     45  C32 UNL A   1       9.219   9.074  19.157  1.00  0.00    +0.000 C 
ATOM     57  C39 UNL A   1      10.024   8.267  18.423  1.00  0.00    +0.000 C 
ATOM     58  N6  UNL A   1      10.434   6.969  18.692  1.00  0.00    +0.000 N 
ATOM     59  C40 UNL A   1      11.194   6.615  17.684  1.00  0.00    +0.000 C 
ATOM     60  C41 UNL A   1      11.933   5.325  17.459  1.00  0.00    +0.000 C 
ATOM     72  C48 UNL A   1      11.865   4.356  18.391  1.00  0.00    +0.000 C 
ATOM     73  C49 UNL A   1      12.530   3.059  18.314  1.00  0.00    +0.000 C 
ATOM     74  C50 UNL A   1      12.203   2.334  19.397  1.00  0.00    +0.000 C 
ATOM     75  C51 UNL A   1      11.331   3.132  20.261  1.00  0.00    +0.000 C 
ATOM     76  N7  UNL A   1      11.192   4.320  19.587  1.00  0.00    +0.000 N 
ATOM     77  C52 UNL A   1      11.324   7.645  16.642  1.00  0.00    +0.000 C 
ATOM     78  C53 UNL A   1      10.624   8.643  17.161  1.00  0.00    +0.000 C 
ATOM     79  C54 UNL A   1       8.536   4.062  23.849  1.00  0.00    +0.000 C 
ATOM     80  C55 UNL A   1       9.367   3.097  23.479  1.00  0.00    +0.000 C 
ATOM    105  H22 UNL A   1       6.856   9.042  23.132  1.00  0.00    +0.000 H 
ATOM    106  H23 UNL A   1       7.466  10.443  21.018  1.00  0.00    +0.000 H 
ATOM    107  H24 UNL A   1       9.268   6.729  20.683  1.00  0.00    +0.000 H 
ATOM    108  H25 UNL A   1      13.151   2.748  17.552  1.00  0.00    +0.000 H 
ATOM    109  H26 UNL A   1      12.515   1.370  19.589  1.00  0.00    +0.000 H 
ATOM    110  H27 UNL A   1      10.660   5.074  19.929  1.00  0.00    +0.000 H 
ATOM    111  H28 UNL A   1      11.829   7.601  15.743  1.00  0.00    +0.000 H 
ATOM    112  H29 UNL A   1      10.521   9.572  16.722  1.00  0.00    +0.000 H 
ATOM    113  H30 UNL A   1       7.929   4.020  24.683  1.00  0.00    +0.000 H 
ATOM    114  H31 UNL A   1       9.589   2.211  23.957  1.00  0.00    +0.000 H 
ENDROOT
BRANCH   24   23
ATOM    103  H20 UNL A   1       9.783  -1.749  22.034  1.00  0.00    +0.000 H 
ATOM    104  H21 UNL A   1       9.336   0.462  21.136  1.00  0.00    +0.000 H 
ATOM     81  C56 UNL A   1      12.279   1.093  22.622  1.00  0.00    +0.000 C 
ATOM     82  C57 UNL A   1      12.568  -0.193  23.074  1.00  0.00    +0.000 C 
ATOM    115  H32 UNL A   1      12.942   1.862  22.805  1.00  0.00    +0.000 H 
ATOM     20  C14 UNL A   1      11.632  -1.218  22.908  1.00  0.00    +0.000 C 
ATOM     21  C15 UNL A   1      10.455  -0.982  22.190  1.00  0.00    +0.000 C 
ATOM    116  H33 UNL A   1      13.472  -0.389  23.530  1.00  0.00    +0.000 H 
ATOM     22  C16 UNL A   1      10.193   0.293  21.685  1.00  0.00    +0.000 C 
ATOM     23  C17 UNL A   1      11.091   1.347  21.919  1.00  0.00    +0.000 C 
BRANCH   20   18
ATOM     18  C13 UNL A   1      11.878  -2.573  23.451  1.00  0.00    +0.000 C 
ATOM     19  O3  UNL A   1      11.937  -3.531  22.693  1.00  0.00    +0.000 O 
BRANCH   18   17
ATOM     17  N3  UNL A   1      12.034  -2.752  24.805  1.00  0.00    +0.000 N 
ATOM    102  H19 UNL A   1      12.837  -3.250  25.076  1.00  0.00    +0.000 H 
BRANCH   17   16
ATOM    100  H17 UNL A   1      10.213  -2.061  25.493  1.00  0.00    +0.000 H 
ATOM    101  H18 UNL A   1      11.105  -3.103  26.605  1.00  0.00    +0.000 H 
ATOM     16  C12 UNL A   1      11.175  -2.308  25.892  1.00  0.00    +0.000 C 
BRANCH   16   15
ATOM     98  H15 UNL A   1      11.548  -0.224  25.995  1.00  0.00    +0.000 H 
ATOM     99  H16 UNL A   1      11.265  -1.037  27.559  1.00  0.00    +0.000 H 
ATOM     15  C11 UNL A   1      11.744  -1.083  26.602  1.00  0.00    +0.000 C 
BRANCH   15   14
ATOM     97  H14 UNL A   1      13.594  -2.054  26.427  1.00  0.00    +0.000 H 
ATOM     14  C10 UNL A   1      13.250  -1.146  26.874  1.00  0.00    +0.000 C 
ATOM     96  H13 UNL A   1      13.396  -1.108  27.934  1.00  0.00    +0.000 H 
BRANCH   14   13
ATOM     13  C9  UNL A   1      14.075  -0.018  26.240  1.00  0.00    +0.000 C 
ATOM     94  H11 UNL A   1      14.913  -0.461  25.742  1.00  0.00    +0.000 H 
ATOM     95  H12 UNL A   1      13.412   0.500  25.579  1.00  0.00    +0.000 H 
BRANCH   13   12
ATOM     92  H9  UNL A   1      14.039   0.974  28.129  1.00  0.00    +0.000 H 
ATOM     12  C8  UNL A   1      14.608   1.035  27.225  1.00  0.00    +0.000 C 
ATOM     93  H10 UNL A   1      15.644   0.822  27.385  1.00  0.00    +0.000 H 
BRANCH   12   11
ATOM     90  H7  UNL A   1      15.474   2.770  26.325  1.00  0.00    +0.000 H 
ATOM     11  C7  UNL A   1      14.515   2.466  26.690  1.00  0.00    +0.000 C 
ATOM     91  H8  UNL A   1      13.799   2.498  25.895  1.00  0.00    +0.000 H 
BRANCH   11   10
ATOM     89  H6  UNL A   1      14.699   4.134  27.862  1.00  0.00    +0.000 H 
ATOM     10  N2  UNL A   1      14.095   3.364  27.746  1.00  0.00    +0.000 N 
BRANCH   10    8
ATOM      9  O2  UNL A   1      13.308   3.279  29.819  1.00  0.00    +0.000 O 
ATOM      8  C6  UNL A   1      13.039   3.375  28.617  1.00  0.00    +0.000 C 
BRANCH    8    7
ATOM      2  C1  UNL A   1       9.553   2.407  27.350  1.00  0.00    +0.000 C 
ATOM      3  C2  UNL A   1       8.868   3.599  27.589  1.00  0.00    +0.000 C 
ATOM      4  C3  UNL A   1       9.524   4.688  28.157  1.00  0.00    +0.000 C 
ATOM      5  C4  UNL A   1      10.875   4.589  28.480  1.00  0.00    +0.000 C 
ATOM      7  C5  UNL A   1      11.601   3.411  28.224  1.00  0.00    +0.000 C 
ATOM     83  C58 UNL A   1      10.935   2.358  27.584  1.00  0.00    +0.000 C 
ATOM    117  H34 UNL A   1      11.470   1.530  27.279  1.00  0.00    +0.000 H 
ATOM     86  H3  UNL A   1       7.869   3.674  27.343  1.00  0.00    +0.000 H 
ATOM     87  H4  UNL A   1       9.011   5.564  28.339  1.00  0.00    +0.000 H 
BRANCH    2    1
ATOM      1  N1  UNL A   1       8.913   1.357  26.677  1.00  0.00    +0.000 N 
ATOM     84  H1  UNL A   1       8.120   0.930  27.073  1.00  0.00    +0.000 H 
ATOM     85  H2  UNL A   1       9.256   1.048  25.808  1.00  0.00    +0.000 H 
ENDBRANCH    2    1
BRANCH    5    6
ATOM      6  O1  UNL A   1      11.431   5.716  29.031  1.00  0.00    +0.000 O 
ATOM     88  H5  UNL A   1      12.315   5.700  29.338  1.00  0.00    +0.000 H 
ENDBRANCH    5    6
ENDBRANCH    8    7
ENDBRANCH   10    8
ENDBRANCH   11   10
ENDBRANCH   12   11
ENDBRANCH   13   12
ENDBRANCH   14   13
ENDBRANCH   15   14
ENDBRANCH   16   15
ENDBRANCH   17   16
ENDBRANCH   18   17
ENDBRANCH   20   18
ENDBRANCH   24   23
BRANCH   28   29
ATOM     33  F2  UNL A   1       7.099   7.842  27.700  1.00  0.00    +0.000 F 
ATOM     34  C25 UNL A   1       5.348   6.769  26.534  1.00  0.00    +0.000 C 
ATOM     35  F3  UNL A   1       4.541   6.904  27.594  1.00  0.00    +0.000 F 
ATOM     36  C26 UNL A   1       4.890   6.138  25.386  1.00  0.00    +0.000 C 
ATOM     37  F4  UNL A   1       3.631   5.679  25.334  1.00  0.00    +0.000 F 
ATOM     38  C27 UNL A   1       5.734   5.981  24.291  1.00  0.00    +0.000 C 
ATOM     39  F5  UNL A   1       5.265   5.357  23.200  1.00  0.00    +0.000 F 
ATOM     29  C22 UNL A   1       7.048   6.472  24.315  1.00  0.00    +0.000 C 
ATOM     30  C23 UNL A   1       7.485   7.121  25.480  1.00  0.00    +0.000 C 
ATOM     31  F1  UNL A   1       8.736   7.599  25.557  1.00  0.00    +0.000 F 
ATOM     32  C24 UNL A   1       6.647   7.253  26.583  1.00  0.00    +0.000 C 
ENDBRANCH   28   29
BRANCH   45   46
ATOM     46  C33 UNL A   1       8.972  10.458  18.631  1.00  0.00    +0.000 C 
ATOM     47  C34 UNL A   1       7.879  10.744  17.801  1.00  0.00    +0.000 C 
ATOM     48  F6  UNL A   1       7.052   9.761  17.412  1.00  0.00    +0.000 F 
ATOM     49  C35 UNL A   1       7.654  12.037  17.337  1.00  0.00    +0.000 C 
ATOM     50  F7  UNL A   1       6.627  12.280  16.510  1.00  0.00    +0.000 F 
ATOM     51  C36 UNL A   1       8.498  13.070  17.717  1.00  0.00    +0.000 C 
ATOM     52  F8  UNL A   1       8.275  14.315  17.274  1.00  0.00    +0.000 F 
ATOM     53  C37 UNL A   1       9.575  12.812  18.551  1.00  0.00    +0.000 C 
ATOM     54  F9  UNL A   1      10.384  13.811  18.929  1.00  0.00    +0.000 F 
ATOM     55  C38 UNL A   1       9.819  11.516  18.996  1.00  0.00    +0.000 C 
ATOM     56  F10 UNL A   1      10.874  11.293  19.792  1.00  0.00    +0.000 F 
ENDBRANCH   45   46
BRANCH   60   61
ATOM     65  F12 UNL A   1      12.459   3.651  12.912  1.00  0.00    +0.000 F 
ATOM     66  C45 UNL A   1      14.306   4.713  13.929  1.00  0.00    +0.000 C 
ATOM     67  F13 UNL A   1      15.049   4.505  12.833  1.00  0.00    +0.000 F 
ATOM     68  C46 UNL A   1      14.857   5.348  15.032  1.00  0.00    +0.000 C 
ATOM     69  F14 UNL A   1      16.128   5.772  14.996  1.00  0.00    +0.000 F 
ATOM     70  C47 UNL A   1      14.093   5.543  16.180  1.00  0.00    +0.000 C 
ATOM     71  F15 UNL A   1      14.655   6.147  17.238  1.00  0.00    +0.000 F 
ATOM     61  C42 UNL A   1      12.755   5.126  16.239  1.00  0.00    +0.000 C 
ATOM     62  C43 UNL A   1      12.215   4.506  15.104  1.00  0.00    +0.000 C 
ATOM     63  F11 UNL A   1      10.946   4.071  15.120  1.00  0.00    +0.000 F 
ATOM     64  C44 UNL A   1      12.988   4.288  13.966  1.00  0.00    +0.000 C 
ENDBRANCH   60   61
TORSDOF 17
ENDMDL
MODEL 7
REMARK VINA RESULT:      -8.7      0.865      7.707
ROOT
ATOM     24  C18 UNL A   1      13.986  54.353   5.090  1.00  0.00    +0.000 C 
ATOM     25  C19 UNL A   1      13.590  52.909   5.212  1.00  0.00    +0.000 C 
ATOM     26  N4  UNL A   1      13.961  51.885   4.488  1.00  0.00    +0.000 N 
ATOM     27  C20 UNL A   1      13.343  50.777   5.055  1.00  0.00    +0.000 C 
ATOM     28  C21 UNL A   1      13.373  49.488   4.638  1.00  0.00    +0.000 C 
ATOM     40  C28 UNL A   1      14.075  49.030   3.468  1.00  0.00    +0.000 C 
ATOM     41  C29 UNL A   1      14.108  47.756   2.926  1.00  0.00    +0.000 C 
ATOM     42  C30 UNL A   1      14.949  47.780   1.808  1.00  0.00    +0.000 C 
ATOM     43  C31 UNL A   1      15.406  49.076   1.631  1.00  0.00    +0.000 C 
ATOM     44  N5  UNL A   1      14.866  49.832   2.659  1.00  0.00    +0.000 N 
ATOM     45  C32 UNL A   1      16.274  49.588   0.603  1.00  0.00    +0.000 C 
ATOM     57  C39 UNL A   1      16.673  50.878   0.492  1.00  0.00    +0.000 C 
ATOM     58  N6  UNL A   1      16.350  51.963   1.296  1.00  0.00    +0.000 N 
ATOM     59  C40 UNL A   1      16.988  52.990   0.789  1.00  0.00    +0.000 C 
ATOM     60  C41 UNL A   1      16.983  54.426   1.236  1.00  0.00    +0.000 C 
ATOM     72  C48 UNL A   1      16.226  54.784   2.290  1.00  0.00    +0.000 C 
ATOM     73  C49 UNL A   1      16.115  56.135   2.833  1.00  0.00    +0.000 C 
ATOM     74  C50 UNL A   1      15.308  56.111   3.907  1.00  0.00    +0.000 C 
ATOM     75  C51 UNL A   1      14.817  54.746   4.105  1.00  0.00    +0.000 C 
ATOM     76  N7  UNL A   1      15.408  54.029   3.094  1.00  0.00    +0.000 N 
ATOM     77  C52 UNL A   1      17.817  52.663  -0.381  1.00  0.00    +0.000 C 
ATOM     78  C53 UNL A   1      17.558  51.373  -0.542  1.00  0.00    +0.000 C 
ATOM     79  C54 UNL A   1      12.606  51.247   6.207  1.00  0.00    +0.000 C 
ATOM     80  C55 UNL A   1      12.675  52.567   6.313  1.00  0.00    +0.000 C 
ATOM    105  H22 UNL A   1      13.600  46.934   3.284  1.00  0.00    +0.000 H 
ATOM    106  H23 UNL A   1      15.189  46.969   1.216  1.00  0.00    +0.000 H 
ATOM    107  H24 UNL A   1      15.020  50.794   2.795  1.00  0.00    +0.000 H 
ATOM    108  H25 UNL A   1      16.582  56.973   2.455  1.00  0.00    +0.000 H 
ATOM    109  H26 UNL A   1      15.072  56.923   4.497  1.00  0.00    +0.000 H 
ATOM    110  H27 UNL A   1      15.259  53.066   2.958  1.00  0.00    +0.000 H 
ATOM    111  H28 UNL A   1      18.437  53.276  -0.931  1.00  0.00    +0.000 H 
ATOM    112  H29 UNL A   1      17.937  50.794  -1.308  1.00  0.00    +0.000 H 
ATOM    113  H30 UNL A   1      12.093  50.636   6.861  1.00  0.00    +0.000 H 
ATOM    114  H31 UNL A   1      12.208  53.190   6.989  1.00  0.00    +0.000 H 
ENDROOT
BRANCH   24   23
ATOM    103  H20 UNL A   1      14.351  56.711   9.052  1.00  0.00    +0.000 H 
ATOM    104  H21 UNL A   1      15.191  55.164   7.381  1.00  0.00    +0.000 H 
ATOM     81  C56 UNL A   1      12.305  56.014   5.893  1.00  0.00    +0.000 C 
ATOM     82  C57 UNL A   1      11.860  56.955   6.817  1.00  0.00    +0.000 C 
ATOM    115  H32 UNL A   1      11.738  55.809   5.055  1.00  0.00    +0.000 H 
ATOM     20  C14 UNL A   1      12.578  57.170   7.997  1.00  0.00    +0.000 C 
ATOM     21  C15 UNL A   1      13.802  56.523   8.199  1.00  0.00    +0.000 C 
ATOM    116  H33 UNL A   1      11.000  57.495   6.632  1.00  0.00    +0.000 H 
ATOM     22  C16 UNL A   1      14.278  55.623   7.244  1.00  0.00    +0.000 C 
ATOM     23  C17 UNL A   1      13.521  55.342   6.095  1.00  0.00    +0.000 C 
BRANCH   20   18
ATOM     18  C13 UNL A   1      12.085  58.104   9.035  1.00  0.00    +0.000 C 
ATOM     19  O3  UNL A   1      12.434  59.275   9.014  1.00  0.00    +0.000 O 
BRANCH   18   17
ATOM     17  N3  UNL A   1      11.240  57.651  10.020  1.00  0.00    +0.000 N 
ATOM    102  H19 UNL A   1      11.647  57.543  10.909  1.00  0.00    +0.000 H 
BRANCH   17   16
ATOM    100  H17 UNL A   1       9.348  57.587  10.844  1.00  0.00    +0.000 H 
ATOM    101  H18 UNL A   1       9.413  57.836   9.098  1.00  0.00    +0.000 H 
ATOM     16  C12 UNL A   1       9.830  57.308   9.930  1.00  0.00    +0.000 C 
BRANCH   16   15
ATOM     98  H15 UNL A   1       8.643  55.556  10.051  1.00  0.00    +0.000 H 
ATOM     99  H16 UNL A   1       9.741  55.651   8.647  1.00  0.00    +0.000 H 
ATOM     15  C11 UNL A   1       9.620  55.815   9.698  1.00  0.00    +0.000 C 
BRANCH   15   14
ATOM     97  H14 UNL A   1      10.079  54.304  11.078  1.00  0.00    +0.000 H 
ATOM     14  C10 UNL A   1      10.638  54.912  10.399  1.00  0.00    +0.000 C 
ATOM     96  H13 UNL A   1      11.360  55.539  10.881  1.00  0.00    +0.000 H 
BRANCH   14   13
ATOM     13  C9  UNL A   1      11.393  53.942   9.480  1.00  0.00    +0.000 C 
ATOM     94  H11 UNL A   1      10.796  53.060   9.368  1.00  0.00    +0.000 H 
ATOM     95  H12 UNL A   1      11.554  54.466   8.561  1.00  0.00    +0.000 H 
BRANCH   13   12
ATOM     92  H9  UNL A   1      13.185  52.799   9.295  1.00  0.00    +0.000 H 
ATOM     12  C8  UNL A   1      12.783  53.516   9.979  1.00  0.00    +0.000 C 
ATOM     93  H10 UNL A   1      13.382  54.400  10.037  1.00  0.00    +0.000 H 
BRANCH   12   11
ATOM     90  H7  UNL A   1      12.769  53.668  12.112  1.00  0.00    +0.000 H 
ATOM     11  C7  UNL A   1      12.759  52.891  11.376  1.00  0.00    +0.000 C 
ATOM     91  H8  UNL A   1      11.871  52.304  11.484  1.00  0.00    +0.000 H 
BRANCH   11   10
ATOM     89  H6  UNL A   1      14.533  52.369  12.256  1.00  0.00    +0.000 H 
ATOM     10  N2  UNL A   1      13.918  52.041  11.560  1.00  0.00    +0.000 N 
BRANCH   10    8
ATOM      9  O2  UNL A   1      13.725  49.850  11.270  1.00  0.00    +0.000 O 
ATOM      8  C6  UNL A   1      14.343  50.878  10.975  1.00  0.00    +0.000 C 
BRANCH    8    7
ATOM      2  C1  UNL A   1      16.640  50.778   7.908  1.00  0.00    +0.000 C 
ATOM      3  C2  UNL A   1      17.866  50.541   8.530  1.00  0.00    +0.000 C 
ATOM      4  C3  UNL A   1      17.943  50.426   9.916  1.00  0.00    +0.000 C 
ATOM      5  C4  UNL A   1      16.787  50.539  10.683  1.00  0.00    +0.000 C 
ATOM      7  C5  UNL A   1      15.530  50.748  10.084  1.00  0.00    +0.000 C 
ATOM     83  C58 UNL A   1      15.473  50.785   8.685  1.00  0.00    +0.000 C 
ATOM    117  H34 UNL A   1      14.553  50.819   8.217  1.00  0.00    +0.000 H 
ATOM     86  H3  UNL A   1      18.721  50.451   7.960  1.00  0.00    +0.000 H 
ATOM     87  H4  UNL A   1      18.853  50.260  10.372  1.00  0.00    +0.000 H 
BRANCH    2    1
ATOM      1  N1  UNL A   1      16.556  50.781   6.509  1.00  0.00    +0.000 N 
ATOM     84  H1  UNL A   1      17.203  50.265   5.976  1.00  0.00    +0.000 H 
ATOM     85  H2  UNL A   1      15.851  51.300   6.059  1.00  0.00    +0.000 H 
ENDBRANCH    2    1
BRANCH    5    6
ATOM      6  O1  UNL A   1      16.967  50.407  12.038  1.00  0.00    +0.000 O 
ATOM     88  H5  UNL A   1      17.313  49.611  12.388  1.00  0.00    +0.000 H 
ENDBRANCH    5    6
ENDBRANCH    8    7
ENDBRANCH   10    8
ENDBRANCH   11   10
ENDBRANCH   12   11
ENDBRANCH   13   12
ENDBRANCH   14   13
ENDBRANCH   15   14
ENDBRANCH   16   15
ENDBRANCH   17   16
ENDBRANCH   18   17
ENDBRANCH   20   18
ENDBRANCH   24   23
BRANCH   28   29
ATOM     33  F2  UNL A   1       9.343  46.866   5.587  1.00  0.00    +0.000 F 
ATOM     34  C25 UNL A   1      11.252  46.519   6.933  1.00  0.00    +0.000 C 
ATOM     35  F3  UNL A   1      10.599  45.590   7.644  1.00  0.00    +0.000 F 
ATOM     36  C26 UNL A   1      12.563  46.845   7.251  1.00  0.00    +0.000 C 
ATOM     37  F4  UNL A   1      13.181  46.216   8.261  1.00  0.00    +0.000 F 
ATOM     38  C27 UNL A   1      13.236  47.822   6.524  1.00  0.00    +0.000 C 
ATOM     39  F5  UNL A   1      14.499  48.122   6.863  1.00  0.00    +0.000 F 
ATOM     29  C22 UNL A   1      12.617  48.477   5.449  1.00  0.00    +0.000 C 
ATOM     30  C23 UNL A   1      11.297  48.121   5.135  1.00  0.00    +0.000 C 
ATOM     31  F1  UNL A   1      10.657  48.727   4.124  1.00  0.00    +0.000 F 
ATOM     32  C24 UNL A   1      10.617  47.162   5.880  1.00  0.00    +0.000 C 
ENDBRANCH   28   29
BRANCH   45   46
ATOM     46  C33 UNL A   1      16.760  48.628  -0.443  1.00  0.00    +0.000 C 
ATOM     47  C34 UNL A   1      17.997  47.980  -0.326  1.00  0.00    +0.000 C 
ATOM     48  F6  UNL A   1      18.806  48.250   0.710  1.00  0.00    +0.000 F 
ATOM     49  C35 UNL A   1      18.425  47.077  -1.296  1.00  0.00    +0.000 C 
ATOM     50  F7  UNL A   1      19.630  46.500  -1.187  1.00  0.00    +0.000 F 
ATOM     51  C36 UNL A   1      17.612  46.785  -2.381  1.00  0.00    +0.000 C 
ATOM     52  F8  UNL A   1      18.023  45.910  -3.311  1.00  0.00    +0.000 F 
ATOM     53  C37 UNL A   1      16.377  47.402  -2.507  1.00  0.00    +0.000 C 
ATOM     54  F9  UNL A   1      15.586  47.111  -3.549  1.00  0.00    +0.000 F 
ATOM     55  C38 UNL A   1      15.958  48.324  -1.553  1.00  0.00    +0.000 C 
ATOM     56  F10 UNL A   1      14.763  48.915  -1.706  1.00  0.00    +0.000 F 
ENDBRANCH   45   46
BRANCH   60   61
ATOM     65  F12 UNL A   1      20.988  57.167   0.789  1.00  0.00    +0.000 F 
ATOM     66  C45 UNL A   1      19.288  57.404  -0.833  1.00  0.00    +0.000 C 
ATOM     67  F13 UNL A   1      20.002  58.346  -1.466  1.00  0.00    +0.000 F 
ATOM     68  C46 UNL A   1      18.039  57.038  -1.313  1.00  0.00    +0.000 C 
ATOM     69  F14 UNL A   1      17.553  57.613  -2.421  1.00  0.00    +0.000 F 
ATOM     70  C47 UNL A   1      17.286  56.078  -0.641  1.00  0.00    +0.000 C 
ATOM     71  F15 UNL A   1      16.075  55.754  -1.119  1.00  0.00    +0.000 F 
ATOM     61  C42 UNL A   1      17.779  55.447   0.511  1.00  0.00    +0.000 C 
ATOM     62  C43 UNL A   1      19.052  55.819   0.964  1.00  0.00    +0.000 C 
ATOM     63  F11 UNL A   1      19.557  55.259   2.074  1.00  0.00    +0.000 F 
ATOM     64  C44 UNL A   1      19.793  56.799   0.307  1.00  0.00    +0.000 C 
ENDBRANCH   60   61
TORSDOF 17
ENDMDL
MODEL 8
REMARK VINA RESULT:      -8.7     46.324     51.322
ROOT
ATOM     24  C18 UNL A   1      53.018  20.182  11.618  1.00  0.00    +0.000 C 
ATOM     25  C19 UNL A   1      52.823  20.768  12.988  1.00  0.00    +0.000 C 
ATOM     26  N4  UNL A   1      53.674  20.863  13.977  1.00  0.00    +0.000 N 
ATOM     27  C20 UNL A   1      53.000  21.528  14.993  1.00  0.00    +0.000 C 
ATOM     28  C21 UNL A   1      53.435  21.826  16.241  1.00  0.00    +0.000 C 
ATOM     40  C28 UNL A   1      54.732  21.470  16.755  1.00  0.00    +0.000 C 
ATOM     41  C29 UNL A   1      55.240  21.666  18.027  1.00  0.00    +0.000 C 
ATOM     42  C30 UNL A   1      56.554  21.188  18.051  1.00  0.00    +0.000 C 
ATOM     43  C31 UNL A   1      56.850  20.658  16.806  1.00  0.00    +0.000 C 
ATOM     44  N5  UNL A   1      55.725  20.841  16.019  1.00  0.00    +0.000 N 
ATOM     45  C32 UNL A   1      58.070  20.032  16.366  1.00  0.00    +0.000 C 
ATOM     57  C39 UNL A   1      58.282  19.528  15.125  1.00  0.00    +0.000 C 
ATOM     58  N6  UNL A   1      57.416  19.487  14.041  1.00  0.00    +0.000 N 
ATOM     59  C40 UNL A   1      58.083  18.913  13.069  1.00  0.00    +0.000 C 
ATOM     60  C41 UNL A   1      57.631  18.581  11.674  1.00  0.00    +0.000 C 
ATOM     72  C48 UNL A   1      56.369  18.871  11.305  1.00  0.00    +0.000 C 
ATOM     73  C49 UNL A   1      55.787  18.604   9.993  1.00  0.00    +0.000 C 
ATOM     74  C50 UNL A   1      54.526  19.064   9.970  1.00  0.00    +0.000 C 
ATOM     75  C51 UNL A   1      54.199  19.628  11.281  1.00  0.00    +0.000 C 
ATOM     76  N7  UNL A   1      55.350  19.462  12.011  1.00  0.00    +0.000 N 
ATOM     77  C52 UNL A   1      59.465  18.553  13.421  1.00  0.00    +0.000 C 
ATOM     78  C53 UNL A   1      59.521  18.914  14.695  1.00  0.00    +0.000 C 
ATOM     79  C54 UNL A   1      51.684  21.850  14.488  1.00  0.00    +0.000 C 
ATOM     80  C55 UNL A   1      51.501  21.347  13.275  1.00  0.00    +0.000 C 
ATOM    105  H22 UNL A   1      54.736  22.091  18.820  1.00  0.00    +0.000 H 
ATOM    106  H23 UNL A   1      57.195  21.225  18.860  1.00  0.00    +0.000 H 
ATOM    107  H24 UNL A   1      55.643  20.566  15.077  1.00  0.00    +0.000 H 
ATOM    108  H25 UNL A   1      56.268  18.138   9.208  1.00  0.00    +0.000 H 
ATOM    109  H26 UNL A   1      53.888  19.027   9.160  1.00  0.00    +0.000 H 
ATOM    110  H27 UNL A   1      55.437  19.740  12.951  1.00  0.00    +0.000 H 
ATOM    111  H28 UNL A   1      60.197  18.131  12.831  1.00  0.00    +0.000 H 
ATOM    112  H29 UNL A   1      60.342  18.774  15.304  1.00  0.00    +0.000 H 
ATOM    113  H30 UNL A   1      50.978  22.399  15.004  1.00  0.00    +0.000 H 
ATOM    114  H31 UNL A   1      50.653  21.358  12.687  1.00  0.00    +0.000 H 
ENDROOT
BRANCH   24   23
ATOM    103  H20 UNL A   1      49.455  18.487   9.205  1.00  0.00    +0.000 H 
ATOM    104  H21 UNL A   1      51.149  18.337  10.938  1.00  0.00    +0.000 H 
ATOM     81  C56 UNL A   1      51.776  21.458   9.871  1.00  0.00    +0.000 C 
ATOM     82  C57 UNL A   1      50.756  21.567   8.928  1.00  0.00    +0.000 C 
ATOM    115  H32 UNL A   1      52.416  22.251  10.028  1.00  0.00    +0.000 H 
ATOM     20  C14 UNL A   1      49.945  20.465   8.645  1.00  0.00    +0.000 C 
ATOM     21  C15 UNL A   1      50.080  19.287   9.387  1.00  0.00    +0.000 C 
ATOM    116  H33 UNL A   1      50.600  22.462   8.437  1.00  0.00    +0.000 H 
ATOM     22  C16 UNL A   1      51.063  19.198  10.375  1.00  0.00    +0.000 C 
ATOM     23  C17 UNL A   1      51.936  20.273  10.606  1.00  0.00    +0.000 C 
BRANCH   20   18
ATOM     18  C13 UNL A   1      48.908  20.528   7.590  1.00  0.00    +0.000 C 
ATOM     19  O3  UNL A   1      48.358  21.591   7.340  1.00  0.00    +0.000 O 
BRANCH   18   17
ATOM     17  N3  UNL A   1      48.563  19.391   6.898  1.00  0.00    +0.000 N 
ATOM    102  H19 UNL A   1      49.282  18.729   6.787  1.00  0.00    +0.000 H 
BRANCH   17   16
ATOM    100  H17 UNL A   1      46.985  18.077   6.683  1.00  0.00    +0.000 H 
ATOM    101  H18 UNL A   1      46.574  19.790   6.567  1.00  0.00    +0.000 H 
ATOM     16  C12 UNL A   1      47.284  19.033   6.306  1.00  0.00    +0.000 C 
BRANCH   16   15
ATOM     98  H15 UNL A   1      47.658  19.922   4.418  1.00  0.00    +0.000 H 
ATOM     99  H16 UNL A   1      48.066  18.189   4.551  1.00  0.00    +0.000 H 
ATOM     15  C11 UNL A   1      47.361  18.960   4.784  1.00  0.00    +0.000 C 
BRANCH   15   14
ATOM     97  H14 UNL A   1      45.455  18.087   4.844  1.00  0.00    +0.000 H 
ATOM     14  C10 UNL A   1      46.049  18.571   4.097  1.00  0.00    +0.000 C 
ATOM     96  H13 UNL A   1      46.285  17.941   3.265  1.00  0.00    +0.000 H 
BRANCH   14   13
ATOM     13  C9  UNL A   1      45.208  19.745   3.580  1.00  0.00    +0.000 C 
ATOM     94  H11 UNL A   1      44.271  19.735   4.096  1.00  0.00    +0.000 H 
ATOM     95  H12 UNL A   1      45.786  20.628   3.763  1.00  0.00    +0.000 H 
BRANCH   13   12
ATOM     92  H9  UNL A   1      45.844  19.579   1.549  1.00  0.00    +0.000 H 
ATOM     12  C8  UNL A   1      44.921  19.728   2.069  1.00  0.00    +0.000 C 
ATOM     93  H10 UNL A   1      44.224  18.937   1.890  1.00  0.00    +0.000 H 
BRANCH   12   11
ATOM     90  H7  UNL A   1      44.576  21.834   2.190  1.00  0.00    +0.000 H 
ATOM     11  C7  UNL A   1      44.281  21.022   1.560  1.00  0.00    +0.000 C 
ATOM     91  H8  UNL A   1      44.606  21.204   0.557  1.00  0.00    +0.000 H 
BRANCH   11   10
ATOM     89  H6  UNL A   1      42.433  21.202   2.424  1.00  0.00    +0.000 H 
ATOM     10  N2  UNL A   1      42.836  20.900   1.578  1.00  0.00    +0.000 N 
BRANCH   10    8
ATOM      9  O2  UNL A   1      42.331  19.755  -0.254  1.00  0.00    +0.000 O 
ATOM      8  C6  UNL A   1      41.912  20.458   0.671  1.00  0.00    +0.000 C 
BRANCH    8    7
ATOM      2  C1  UNL A   1      38.516  22.003  -0.212  1.00  0.00    +0.000 C 
ATOM      3  C2  UNL A   1      37.709  21.376   0.737  1.00  0.00    +0.000 C 
ATOM      4  C3  UNL A   1      38.257  20.466   1.638  1.00  0.00    +0.000 C 
ATOM      5  C4  UNL A   1      39.621  20.187   1.594  1.00  0.00    +0.000 C 
ATOM      7  C5  UNL A   1      40.467  20.825   0.668  1.00  0.00    +0.000 C 
ATOM     83  C58 UNL A   1      39.902  21.791  -0.175  1.00  0.00    +0.000 C 
ATOM    117  H34 UNL A   1      40.517  22.357  -0.781  1.00  0.00    +0.000 H 
ATOM     86  H3  UNL A   1      36.700  21.588   0.773  1.00  0.00    +0.000 H 
ATOM     87  H4  UNL A   1      37.655  19.998   2.332  1.00  0.00    +0.000 H 
BRANCH    2    1
ATOM      1  N1  UNL A   1      37.976  22.998  -1.039  1.00  0.00    +0.000 N 
ATOM     84  H1  UNL A   1      37.073  22.890  -1.414  1.00  0.00    +0.000 H 
ATOM     85  H2  UNL A   1      38.501  23.806  -1.244  1.00  0.00    +0.000 H 
ENDBRANCH    2    1
BRANCH    5    6
ATOM      6  O1  UNL A   1      40.064  19.281   2.524  1.00  0.00    +0.000 O 
ATOM     88  H5  UNL A   1      40.333  18.426   2.253  1.00  0.00    +0.000 H 
ENDBRANCH    5    6
ENDBRANCH    8    7
ENDBRANCH   10    8
ENDBRANCH   11   10
ENDBRANCH   12   11
ENDBRANCH   13   12
ENDBRANCH   14   13
ENDBRANCH   15   14
ENDBRANCH   16   15
ENDBRANCH   17   16
ENDBRANCH   18   17
ENDBRANCH   20   18
ENDBRANCH   24   23
BRANCH   28   29
ATOM     33  F2  UNL A   1      51.401  25.979  17.862  1.00  0.00    +0.000 F 
ATOM     34  C25 UNL A   1      50.674  23.934  18.793  1.00  0.00    +0.000 C 
ATOM     35  F3  UNL A   1      49.810  24.585  19.582  1.00  0.00    +0.000 F 
ATOM     36  C26 UNL A   1      50.773  22.552  18.860  1.00  0.00    +0.000 C 
ATOM     37  F4  UNL A   1      49.989  21.866  19.704  1.00  0.00    +0.000 F 
ATOM     38  C27 UNL A   1      51.684  21.876  18.052  1.00  0.00    +0.000 C 
ATOM     39  F5  UNL A   1      51.763  20.541  18.148  1.00  0.00    +0.000 F 
ATOM     29  C22 UNL A   1      52.498  22.570  17.146  1.00  0.00    +0.000 C 
ATOM     30  C23 UNL A   1      52.371  23.966  17.083  1.00  0.00    +0.000 C 
ATOM     31  F1  UNL A   1      53.136  24.677  16.241  1.00  0.00    +0.000 F 
ATOM     32  C24 UNL A   1      51.478  24.641  17.911  1.00  0.00    +0.000 C 
ENDBRANCH   28   29
BRANCH   45   46
ATOM     46  C33 UNL A   1      59.188  19.906  17.358  1.00  0.00    +0.000 C 
ATOM     47  C34 UNL A   1      59.518  18.673  17.939  1.00  0.00    +0.000 C 
ATOM     48  F6  UNL A   1      58.795  17.579  17.657  1.00  0.00    +0.000 F 
ATOM     49  C35 UNL A   1      60.572  18.570  18.844  1.00  0.00    +0.000 C 
ATOM     50  F7  UNL A   1      60.843  17.391  19.421  1.00  0.00    +0.000 F 
ATOM     51  C36 UNL A   1      61.330  19.688  19.159  1.00  0.00    +0.000 C 
ATOM     52  F8  UNL A   1      62.348  19.584  20.026  1.00  0.00    +0.000 F 
ATOM     53  C37 UNL A   1      61.031  20.912  18.582  1.00  0.00    +0.000 C 
ATOM     54  F9  UNL A   1      61.771  21.990  18.877  1.00  0.00    +0.000 F 
ATOM     55  C38 UNL A   1      59.963  21.025  17.698  1.00  0.00    +0.000 C 
ATOM     56  F10 UNL A   1      59.689  22.224  17.163  1.00  0.00    +0.000 F 
ENDBRANCH   45   46
BRANCH   60   61
ATOM     65  F12 UNL A   1      59.620  14.550   9.791  1.00  0.00    +0.000 F 
ATOM     66  C45 UNL A   1      60.311  16.639   8.934  1.00  0.00    +0.000 C 
ATOM     67  F13 UNL A   1      61.159  16.031   8.092  1.00  0.00    +0.000 F 
ATOM     68  C46 UNL A   1      60.226  18.023   8.955  1.00  0.00    +0.000 C 
ATOM     69  F14 UNL A   1      60.977  18.753   8.120  1.00  0.00    +0.000 F 
ATOM     70  C47 UNL A   1      59.362  18.656   9.846  1.00  0.00    +0.000 C 
ATOM     71  F15 UNL A   1      59.311  19.997   9.855  1.00  0.00    +0.000 F 
ATOM     61  C42 UNL A   1      58.551  17.916  10.718  1.00  0.00    +0.000 C 
ATOM     62  C43 UNL A   1      58.640  16.518  10.663  1.00  0.00    +0.000 C 
ATOM     63  F11 UNL A   1      57.898  15.768  11.492  1.00  0.00    +0.000 F 
ATOM     64  C44 UNL A   1      59.522  15.887   9.790  1.00  0.00    +0.000 C 
ENDBRANCH   60   61
TORSDOF 17
ENDMDL
MODEL 9
REMARK VINA RESULT:      -8.7     44.449     47.413
ROOT
ATOM     24  C18 UNL A   1      21.796  36.036  47.414  1.00  0.00    +0.000 C 
ATOM     25  C19 UNL A   1      22.840  37.117  47.436  1.00  0.00    +0.000 C 
ATOM     26  N4  UNL A   1      22.762  38.333  47.912  1.00  0.00    +0.000 N 
ATOM     27  C20 UNL A   1      24.019  38.894  47.724  1.00  0.00    +0.000 C 
ATOM     28  C21 UNL A   1      24.433  40.153  48.004  1.00  0.00    +0.000 C 
ATOM     40  C28 UNL A   1      23.590  41.179  48.560  1.00  0.00    +0.000 C 
ATOM     41  C29 UNL A   1      23.898  42.504  48.816  1.00  0.00    +0.000 C 
ATOM     42  C30 UNL A   1      22.775  43.111  49.389  1.00  0.00    +0.000 C 
ATOM     43  C31 UNL A   1      21.756  42.174  49.451  1.00  0.00    +0.000 C 
ATOM     44  N5  UNL A   1      22.270  40.993  48.944  1.00  0.00    +0.000 N 
ATOM     45  C32 UNL A   1      20.412  42.344  49.939  1.00  0.00    +0.000 C 
ATOM     57  C39 UNL A   1      19.464  41.375  49.962  1.00  0.00    +0.000 C 
ATOM     58  N6  UNL A   1      19.553  40.059  49.532  1.00  0.00    +0.000 N 
ATOM     59  C40 UNL A   1      18.381  39.522  49.771  1.00  0.00    +0.000 C 
ATOM     60  C41 UNL A   1      17.899  38.127  49.481  1.00  0.00    +0.000 C 
ATOM     72  C48 UNL A   1      18.728  37.256  48.877  1.00  0.00    +0.000 C 
ATOM     73  C49 UNL A   1      18.400  35.877  48.528  1.00  0.00    +0.000 C 
ATOM     74  C50 UNL A   1      19.480  35.295  47.979  1.00  0.00    +0.000 C 
ATOM     75  C51 UNL A   1      20.565  36.274  47.907  1.00  0.00    +0.000 C 
ATOM     76  N7  UNL A   1      20.025  37.411  48.454  1.00  0.00    +0.000 N 
ATOM     77  C52 UNL A   1      17.423  40.434  50.412  1.00  0.00    +0.000 C 
ATOM     78  C53 UNL A   1      18.121  41.560  50.470  1.00  0.00    +0.000 C 
ATOM     79  C54 UNL A   1      24.853  37.873  47.128  1.00  0.00    +0.000 C 
ATOM     80  C55 UNL A   1      24.156  36.775  46.873  1.00  0.00    +0.000 C 
ATOM    105  H22 UNL A   1      24.799  42.964  48.618  1.00  0.00    +0.000 H 
ATOM    106  H23 UNL A   1      22.716  44.090  49.710  1.00  0.00    +0.000 H 
ATOM    107  H24 UNL A   1      21.774  40.146  48.867  1.00  0.00    +0.000 H 
ATOM    108  H25 UNL A   1      17.487  35.421  48.679  1.00  0.00    +0.000 H 
ATOM    109  H26 UNL A   1      19.535  34.316  47.660  1.00  0.00    +0.000 H 
ATOM    110  H27 UNL A   1      20.521  38.258  48.537  1.00  0.00    +0.000 H 
ATOM    111  H28 UNL A   1      16.461  40.248  50.733  1.00  0.00    +0.000 H 
ATOM    112  H29 UNL A   1      17.753  42.455  50.830  1.00  0.00    +0.000 H 
ATOM    113  H30 UNL A   1      25.860  37.985  46.929  1.00  0.00    +0.000 H 
ATOM    114  H31 UNL A   1      24.457  35.909  46.401  1.00  0.00    +0.000 H 
ENDROOT
BRANCH   24   23
ATOM    103  H20 UNL A   1      23.269  31.683  47.931  1.00  0.00    +0.000 H 
ATOM    104  H21 UNL A   1      22.625  33.856  48.799  1.00  0.00    +0.000 H 
ATOM     81  C56 UNL A   1      22.017  34.400  45.543  1.00  0.00    +0.000 C 
ATOM     82  C57 UNL A   1      22.317  33.130  45.057  1.00  0.00    +0.000 C 
ATOM    115  H32 UNL A   1      21.705  35.138  44.892  1.00  0.00    +0.000 H 
ATOM     20  C14 UNL A   1      22.827  32.154  45.919  1.00  0.00    +0.000 C 
ATOM     21  C15 UNL A   1      22.929  32.416  47.289  1.00  0.00    +0.000 C 
ATOM    116  H33 UNL A   1      22.164  32.908  44.061  1.00  0.00    +0.000 H 
ATOM     22  C16 UNL A   1      22.571  33.671  47.786  1.00  0.00    +0.000 C 
ATOM     23  C17 UNL A   1      22.136  34.681  46.913  1.00  0.00    +0.000 C 
BRANCH   20   18
ATOM     18  C13 UNL A   1      23.232  30.823  45.414  1.00  0.00    +0.000 C 
ATOM     19  O3  UNL A   1      24.413  30.507  45.412  1.00  0.00    +0.000 O 
BRANCH   18   17
ATOM     17  N3  UNL A   1      22.281  29.948  44.945  1.00  0.00    +0.000 N 
ATOM    102  H19 UNL A   1      22.461  29.564  44.057  1.00  0.00    +0.000 H 
BRANCH   17   16
ATOM    100  H17 UNL A   1      21.133  28.477  45.829  1.00  0.00    +0.000 H 
ATOM    101  H18 UNL A   1      20.894  30.111  46.452  1.00  0.00    +0.000 H 
ATOM     16  C12 UNL A   1      21.046  29.513  45.578  1.00  0.00    +0.000 C 
BRANCH   16   15
ATOM     98  H15 UNL A   1      20.127  29.415  43.670  1.00  0.00    +0.000 H 
ATOM     99  H16 UNL A   1      19.058  29.088  45.061  1.00  0.00    +0.000 H 
ATOM     15  C11 UNL A   1      19.840  29.699  44.661  1.00  0.00    +0.000 C 
BRANCH   15   14
ATOM     97  H14 UNL A   1      20.143  31.769  44.506  1.00  0.00    +0.000 H 
ATOM     14  C10 UNL A   1      19.293  31.128  44.611  1.00  0.00    +0.000 C 
ATOM     96  H13 UNL A   1      18.736  31.301  45.509  1.00  0.00    +0.000 H 
BRANCH   14   13
ATOM     13  C9  UNL A   1      18.377  31.435  43.418  1.00  0.00    +0.000 C 
ATOM     94  H11 UNL A   1      18.760  32.304  42.923  1.00  0.00    +0.000 H 
ATOM     95  H12 UNL A   1      18.383  30.558  42.805  1.00  0.00    +0.000 H 
BRANCH   13   12
ATOM     92  H9  UNL A   1      16.870  32.444  44.543  1.00  0.00    +0.000 H 
ATOM     12  C8  UNL A   1      16.906  31.700  43.775  1.00  0.00    +0.000 C 
ATOM     93  H10 UNL A   1      16.416  32.019  42.880  1.00  0.00    +0.000 H 
BRANCH   12   11
ATOM     90  H7  UNL A   1      16.772  29.958  45.008  1.00  0.00    +0.000 H 
ATOM     11  C7  UNL A   1      16.171  30.453  44.275  1.00  0.00    +0.000 C 
ATOM     91  H8  UNL A   1      15.238  30.745  44.709  1.00  0.00    +0.000 H 
BRANCH   11   10
ATOM     89  H6  UNL A   1      15.337  29.937  42.477  1.00  0.00    +0.000 H 
ATOM     10  N2  UNL A   1      15.920  29.549  43.170  1.00  0.00    +0.000 N 
BRANCH   10    8
ATOM      9  O2  UNL A   1      17.478  27.969  43.187  1.00  0.00    +0.000 O 
ATOM      8  C6  UNL A   1      16.321  28.273  42.880  1.00  0.00    +0.000 C 
BRANCH    8    7
ATOM      2  C1  UNL A   1      14.737  26.106  40.142  1.00  0.00    +0.000 C 
ATOM      3  C2  UNL A   1      13.955  25.258  40.925  1.00  0.00    +0.000 C 
ATOM      4  C3  UNL A   1      13.950  25.384  42.312  1.00  0.00    +0.000 C 
ATOM      5  C4  UNL A   1      14.725  26.368  42.919  1.00  0.00    +0.000 C 
ATOM      7  C5  UNL A   1      15.503  27.259  42.155  1.00  0.00    +0.000 C 
ATOM     83  C58 UNL A   1      15.430  27.158  40.760  1.00  0.00    +0.000 C 
ATOM    117  H34 UNL A   1      15.895  27.870  40.176  1.00  0.00    +0.000 H 
ATOM     86  H3  UNL A   1      13.376  24.533  40.474  1.00  0.00    +0.000 H 
ATOM     87  H4  UNL A   1      13.376  24.748  42.887  1.00  0.00    +0.000 H 
BRANCH    2    1
ATOM      1  N1  UNL A   1      14.650  26.044  38.744  1.00  0.00    +0.000 N 
ATOM     84  H1  UNL A   1      14.010  25.430  38.318  1.00  0.00    +0.000 H 
ATOM     85  H2  UNL A   1      15.228  26.616  38.189  1.00  0.00    +0.000 H 
ENDBRANCH    2    1
BRANCH    5    6
ATOM      6  O1  UNL A   1      14.649  26.413  44.289  1.00  0.00    +0.000 O 
ATOM     88  H5  UNL A   1      13.877  26.741  44.704  1.00  0.00    +0.000 H 
ENDBRANCH    5    6
ENDBRANCH    8    7
ENDBRANCH   10    8
ENDBRANCH   11   10
ENDBRANCH   12   11
ENDBRANCH   13   12
ENDBRANCH   14   13
ENDBRANCH   15   14
ENDBRANCH   16   15
ENDBRANCH   17   16
ENDBRANCH   18   17
ENDBRANCH   20   18
ENDBRANCH   24   23
BRANCH   28   29
ATOM     33  F2  UNL A   1      28.006  41.426  44.902  1.00  0.00    +0.000 F 
ATOM     34  C25 UNL A   1      28.529  41.223  47.196  1.00  0.00    +0.000 C 
ATOM     35  F3  UNL A   1      29.802  41.562  46.950  1.00  0.00    +0.000 F 
ATOM     36  C26 UNL A   1      28.126  40.925  48.490  1.00  0.00    +0.000 C 
ATOM     37  F4  UNL A   1      29.009  40.994  49.497  1.00  0.00    +0.000 F 
ATOM     38  C27 UNL A   1      26.809  40.555  48.743  1.00  0.00    +0.000 C 
ATOM     39  F5  UNL A   1      26.452  40.263  50.003  1.00  0.00    +0.000 F 
ATOM     29  C22 UNL A   1      25.863  40.498  47.709  1.00  0.00    +0.000 C 
ATOM     30  C23 UNL A   1      26.288  40.819  46.411  1.00  0.00    +0.000 C 
ATOM     31  F1  UNL A   1      25.425  40.768  45.386  1.00  0.00    +0.000 F 
ATOM     32  C24 UNL A   1      27.613  41.163  46.156  1.00  0.00    +0.000 C 
ENDBRANCH   28   29
BRANCH   45   46
ATOM     46  C33 UNL A   1      20.018  43.700  50.445  1.00  0.00    +0.000 C 
ATOM     47  C34 UNL A   1      19.474  44.672  49.593  1.00  0.00    +0.000 C 
ATOM     48  F6  UNL A   1      19.344  44.422  48.281  1.00  0.00    +0.000 F 
ATOM     49  C35 UNL A   1      19.096  45.919  50.082  1.00  0.00    +0.000 C 
ATOM     50  F7  UNL A   1      18.618  46.849  49.242  1.00  0.00    +0.000 F 
ATOM     51  C36 UNL A   1      19.227  46.206  51.432  1.00  0.00    +0.000 C 
ATOM     52  F8  UNL A   1      18.856  47.406  51.902  1.00  0.00    +0.000 F 
ATOM     53  C37 UNL A   1      19.747  45.254  52.295  1.00  0.00    +0.000 C 
ATOM     54  F9  UNL A   1      19.862  45.526  53.602  1.00  0.00    +0.000 F 
ATOM     55  C38 UNL A   1      20.150  44.015  51.806  1.00  0.00    +0.000 C 
ATOM     56  F10 UNL A   1      20.660  43.117  52.661  1.00  0.00    +0.000 F 
ENDBRANCH   45   46
BRANCH   60   61
ATOM     65  F12 UNL A   1      14.525  36.914  52.784  1.00  0.00    +0.000 F 
ATOM     66  C45 UNL A   1      13.906  36.910  50.504  1.00  0.00    +0.000 C 
ATOM     67  F13 UNL A   1      12.667  36.513  50.825  1.00  0.00    +0.000 F 
ATOM     68  C46 UNL A   1      14.253  37.101  49.175  1.00  0.00    +0.000 C 
ATOM     69  F14 UNL A   1      13.342  36.908  48.211  1.00  0.00    +0.000 F 
ATOM     70  C47 UNL A   1      15.548  37.490  48.839  1.00  0.00    +0.000 C 
ATOM     71  F15 UNL A   1      15.859  37.653  47.545  1.00  0.00    +0.000 F 
ATOM     61  C42 UNL A   1      16.515  37.717  49.829  1.00  0.00    +0.000 C 
ATOM     62  C43 UNL A   1      16.135  37.537  51.166  1.00  0.00    +0.000 C 
ATOM     63  F11 UNL A   1      17.031  37.722  52.146  1.00  0.00    +0.000 F 
ATOM     64  C44 UNL A   1      14.847  37.122  51.499  1.00  0.00    +0.000 C 
ENDBRANCH   60   61
TORSDOF 17
ENDMDL
MODEL 10
REMARK VINA RESULT:      -8.7     38.546     43.545
ROOT
ATOM     24  C18 UNL A   1      38.159  29.898  29.958  1.00  0.00    +0.000 C 
ATOM     25  C19 UNL A   1      38.423  30.401  31.349  1.00  0.00    +0.000 C 
ATOM     26  N4  UNL A   1      39.455  30.187  32.125  1.00  0.00    +0.000 N 
ATOM     27  C20 UNL A   1      39.219  30.922  33.280  1.00  0.00    +0.000 C 
ATOM     28  C21 UNL A   1      39.970  30.992  34.405  1.00  0.00    +0.000 C 
ATOM     40  C28 UNL A   1      41.196  30.265  34.608  1.00  0.00    +0.000 C 
ATOM     41  C29 UNL A   1      41.992  30.216  35.740  1.00  0.00    +0.000 C 
ATOM     42  C30 UNL A   1      43.099  29.408  35.459  1.00  0.00    +0.000 C 
ATOM     43  C31 UNL A   1      42.970  28.921  34.169  1.00  0.00    +0.000 C 
ATOM     44  N5  UNL A   1      41.801  29.458  33.656  1.00  0.00    +0.000 N 
ATOM     45  C32 UNL A   1      43.850  28.033  33.454  1.00  0.00    +0.000 C 
ATOM     57  C39 UNL A   1      43.651  27.594  32.187  1.00  0.00    +0.000 C 
ATOM     58  N6  UNL A   1      42.601  27.871  31.323  1.00  0.00    +0.000 N 
ATOM     59  C40 UNL A   1      42.865  27.223  30.215  1.00  0.00    +0.000 C 
ATOM     60  C41 UNL A   1      42.058  27.137  28.949  1.00  0.00    +0.000 C 
ATOM     72  C48 UNL A   1      40.876  27.778  28.877  1.00  0.00    +0.000 C 
ATOM     73  C49 UNL A   1      39.983  27.783  27.722  1.00  0.00    +0.000 C 
ATOM     74  C50 UNL A   1      38.922  28.560  27.992  1.00  0.00    +0.000 C 
ATOM     75  C51 UNL A   1      39.044  29.081  29.354  1.00  0.00    +0.000 C 
ATOM     76  N7  UNL A   1      40.231  28.558  29.805  1.00  0.00    +0.000 N 
ATOM     77  C52 UNL A   1      44.136  26.483  30.242  1.00  0.00    +0.000 C 
ATOM     78  C53 UNL A   1      44.554  26.711  31.478  1.00  0.00    +0.000 C 
ATOM     79  C54 UNL A   1      37.966  31.620  33.088  1.00  0.00    +0.000 C 
ATOM     80  C55 UNL A   1      37.403  31.284  31.936  1.00  0.00    +0.000 C 
ATOM    105  H22 UNL A   1      41.802  30.693  36.634  1.00  0.00    +0.000 H 
ATOM    106  H23 UNL A   1      43.879  29.208  36.105  1.00  0.00    +0.000 H 
ATOM    107  H24 UNL A   1      41.451  29.292  32.751  1.00  0.00    +0.000 H 
ATOM    108  H25 UNL A   1      40.141  27.272  26.840  1.00  0.00    +0.000 H 
ATOM    109  H26 UNL A   1      38.144  28.758  27.344  1.00  0.00    +0.000 H 
ATOM    110  H27 UNL A   1      40.585  28.726  30.708  1.00  0.00    +0.000 H 
ATOM    111  H28 UNL A   1      44.584  25.932  29.494  1.00  0.00    +0.000 H 
ATOM    112  H29 UNL A   1      45.414  26.310  31.886  1.00  0.00    +0.000 H 
ATOM    113  H30 UNL A   1      37.564  32.292  33.760  1.00  0.00    +0.000 H 
ATOM    114  H31 UNL A   1      36.488  31.566  31.553  1.00  0.00    +0.000 H 
ENDROOT
BRANCH   24   23
ATOM    103  H20 UNL A   1      35.542  33.101  27.890  1.00  0.00    +0.000 H 
ATOM    104  H21 UNL A   1      37.566  32.371  29.013  1.00  0.00    +0.000 H 
ATOM     81  C56 UNL A   1      35.949  29.431  28.898  1.00  0.00    +0.000 C 
ATOM     82  C57 UNL A   1      34.821  29.838  28.189  1.00  0.00    +0.000 C 
ATOM    115  H32 UNL A   1      36.043  28.446  29.192  1.00  0.00    +0.000 H 
ATOM     20  C14 UNL A   1      34.646  31.187  27.869  1.00  0.00    +0.000 C 
ATOM     21  C15 UNL A   1      35.654  32.112  28.161  1.00  0.00    +0.000 C 
ATOM    116  H33 UNL A   1      34.115  29.143  27.900  1.00  0.00    +0.000 H 
ATOM     22  C16 UNL A   1      36.813  31.693  28.818  1.00  0.00    +0.000 C 
ATOM     23  C17 UNL A   1      36.958  30.354  29.216  1.00  0.00    +0.000 C 
BRANCH   20   18
ATOM     18  C13 UNL A   1      33.419  31.659  27.190  1.00  0.00    +0.000 C 
ATOM     19  O3  UNL A   1      32.988  32.780  27.421  1.00  0.00    +0.000 O 
BRANCH   18   17
ATOM     17  N3  UNL A   1      32.765  30.836  26.304  1.00  0.00    +0.000 N 
ATOM    102  H19 UNL A   1      33.156  30.789  25.402  1.00  0.00    +0.000 H 
BRANCH   17   16
ATOM    100  H17 UNL A   1      31.490  29.803  27.557  1.00  0.00    +0.000 H 
ATOM    101  H18 UNL A   1      30.729  30.585  26.169  1.00  0.00    +0.000 H 
ATOM     16  C12 UNL A   1      31.575  30.027  26.514  1.00  0.00    +0.000 C 
BRANCH   16   15
ATOM     98  H15 UNL A   1      30.650  28.515  25.352  1.00  0.00    +0.000 H 
ATOM     99  H16 UNL A   1      32.358  28.857  24.959  1.00  0.00    +0.000 H 
ATOM     15  C11 UNL A   1      31.630  28.719  25.732  1.00  0.00    +0.000 C 
BRANCH   15   14
ATOM     97  H14 UNL A   1      31.429  26.706  26.288  1.00  0.00    +0.000 H 
ATOM     14  C10 UNL A   1      32.088  27.507  26.549  1.00  0.00    +0.000 C 
ATOM     96  H13 UNL A   1      32.050  27.773  27.585  1.00  0.00    +0.000 H 
BRANCH   14   13
ATOM     13  C9  UNL A   1      33.507  27.009  26.239  1.00  0.00    +0.000 C 
ATOM     94  H11 UNL A   1      34.140  27.865  26.126  1.00  0.00    +0.000 H 
ATOM     95  H12 UNL A   1      33.785  26.378  27.057  1.00  0.00    +0.000 H 
BRANCH   13   12
ATOM     92  H9  UNL A   1      34.386  25.407  25.139  1.00  0.00    +0.000 H 
ATOM     12  C8  UNL A   1      33.636  26.150  24.971  1.00  0.00    +0.000 C 
ATOM     93  H10 UNL A   1      32.675  25.719  24.782  1.00  0.00    +0.000 H 
BRANCH   12   11
ATOM     90  H7  UNL A   1      33.602  27.939  23.801  1.00  0.00    +0.000 H 
ATOM     11  C7  UNL A   1      34.022  26.958  23.730  1.00  0.00    +0.000 C 
ATOM     91  H8  UNL A   1      35.089  27.024  23.672  1.00  0.00    +0.000 H 
BRANCH   11   10
ATOM     89  H6  UNL A   1      34.217  25.818  22.040  1.00  0.00    +0.000 H 
ATOM     10  N2  UNL A   1      33.520  26.305  22.537  1.00  0.00    +0.000 N 
BRANCH   10    8
ATOM      9  O2  UNL A   1      32.236  25.704  20.831  1.00  0.00    +0.000 O 
ATOM      8  C6  UNL A   1      32.285  26.219  21.953  1.00  0.00    +0.000 C 
BRANCH    8    7
ATOM      2  C1  UNL A   1      29.310  28.489  22.783  1.00  0.00    +0.000 C 
ATOM      3  C2  UNL A   1      28.591  27.646  23.631  1.00  0.00    +0.000 C 
ATOM      4  C3  UNL A   1      29.060  26.367  23.918  1.00  0.00    +0.000 C 
ATOM      5  C4  UNL A   1      30.259  25.930  23.362  1.00  0.00    +0.000 C 
ATOM      7  C5  UNL A   1      31.023  26.766  22.526  1.00  0.00    +0.000 C 
ATOM     83  C58 UNL A   1      30.565  28.073  22.315  1.00  0.00    +0.000 C 
ATOM    117  H34 UNL A   1      31.162  28.743  21.805  1.00  0.00    +0.000 H 
ATOM     86  H3  UNL A   1      27.706  27.973  24.048  1.00  0.00    +0.000 H 
ATOM     87  H4  UNL A   1      28.520  25.744  24.539  1.00  0.00    +0.000 H 
BRANCH    2    1
ATOM      1  N1  UNL A   1      28.887  29.811  22.590  1.00  0.00    +0.000 N 
ATOM     84  H1  UNL A   1      28.479  30.311  23.332  1.00  0.00    +0.000 H 
ATOM     85  H2  UNL A   1      28.998  30.239  21.710  1.00  0.00    +0.000 H 
ENDBRANCH    2    1
BRANCH    5    6
ATOM      6  O1  UNL A   1      30.637  24.657  23.708  1.00  0.00    +0.000 O 
ATOM     88  H5  UNL A   1      30.106  23.927  23.459  1.00  0.00    +0.000 H 
ENDBRANCH    5    6
ENDBRANCH    8    7
ENDBRANCH   10    8
ENDBRANCH   11   10
ENDBRANCH   12   11
ENDBRANCH   13   12
ENDBRANCH   14   13
ENDBRANCH   15   14
ENDBRANCH   16   15
ENDBRANCH   17   16
ENDBRANCH   18   17
ENDBRANCH   20   18
ENDBRANCH   24   23
BRANCH   28   29
ATOM     33  F2  UNL A   1      37.200  31.828  38.360  1.00  0.00    +0.000 F 
ATOM     34  C25 UNL A   1      38.655  33.537  37.625  1.00  0.00    +0.000 C 
ATOM     35  F3  UNL A   1      38.254  34.328  38.629  1.00  0.00    +0.000 F 
ATOM     36  C26 UNL A   1      39.594  33.993  36.712  1.00  0.00    +0.000 C 
ATOM     37  F4  UNL A   1      40.114  35.222  36.846  1.00  0.00    +0.000 F 
ATOM     38  C27 UNL A   1      39.998  33.178  35.658  1.00  0.00    +0.000 C 
ATOM     39  F5  UNL A   1      40.900  33.651  34.786  1.00  0.00    +0.000 F 
ATOM     29  C22 UNL A   1      39.485  31.881  35.511  1.00  0.00    +0.000 C 
ATOM     30  C23 UNL A   1      38.548  31.434  36.456  1.00  0.00    +0.000 C 
ATOM     31  F1  UNL A   1      38.018  30.206  36.352  1.00  0.00    +0.000 F 
ATOM     32  C24 UNL A   1      38.126  32.261  37.493  1.00  0.00    +0.000 C 
ENDBRANCH   28   29
BRANCH   45   46
ATOM     46  C33 UNL A   1      45.072  27.536  34.168  1.00  0.00    +0.000 C 
ATOM     47  C34 UNL A   1      45.051  26.355  34.924  1.00  0.00    +0.000 C 
ATOM     48  F6  UNL A   1      43.907  25.668  35.070  1.00  0.00    +0.000 F 
ATOM     49  C35 UNL A   1      46.199  25.898  35.565  1.00  0.00    +0.000 C 
ATOM     50  F7  UNL A   1      46.146  24.790  36.319  1.00  0.00    +0.000 F 
ATOM     51  C36 UNL A   1      47.391  26.593  35.437  1.00  0.00    +0.000 C 
ATOM     52  F8  UNL A   1      48.497  26.147  36.051  1.00  0.00    +0.000 F 
ATOM     53  C37 UNL A   1      47.438  27.754  34.681  1.00  0.00    +0.000 C 
ATOM     54  F9  UNL A   1      48.593  28.420  34.546  1.00  0.00    +0.000 F 
ATOM     55  C38 UNL A   1      46.287  28.229  34.060  1.00  0.00    +0.000 C 
ATOM     56  F10 UNL A   1      46.358  29.360  33.343  1.00  0.00    +0.000 F 
ENDBRANCH   45   46
BRANCH   60   61
ATOM     65  F12 UNL A   1      42.278  22.930  26.498  1.00  0.00    +0.000 F 
ATOM     66  C45 UNL A   1      43.462  24.784  25.639  1.00  0.00    +0.000 C 
ATOM     67  F13 UNL A   1      43.913  24.042  24.617  1.00  0.00    +0.000 F 
ATOM     68  C46 UNL A   1      43.839  26.114  25.753  1.00  0.00    +0.000 C 
ATOM     69  F14 UNL A   1      44.639  26.664  24.830  1.00  0.00    +0.000 F 
ATOM     70  C47 UNL A   1      43.391  26.878  26.828  1.00  0.00    +0.000 C 
ATOM     71  F15 UNL A   1      43.783  28.157  26.920  1.00  0.00    +0.000 F 
ATOM     61  C42 UNL A   1      42.538  26.332  27.797  1.00  0.00    +0.000 C 
ATOM     62  C43 UNL A   1      42.154  24.992  27.650  1.00  0.00    +0.000 C 
ATOM     63  F11 UNL A   1      41.356  24.420  28.564  1.00  0.00    +0.000 F 
ATOM     64  C44 UNL A   1      42.625  24.222  26.589  1.00  0.00    +0.000 C 
ENDBRANCH   60   61
TORSDOF 17
ENDMDL
