MODEL 1
REMARK VINA RESULT:     -10.2      0.000      0.000
ROOT
ATOM    136  H33 UNL A   1      18.434  50.603  -2.081  1.00  0.00    +0.000 H 
ATOM    137  H34 UNL A   1      19.069  53.107  -1.729  1.00  0.00    +0.000 H 
ATOM    138  H35 UNL A   1      16.065  52.135   0.950  1.00  0.00    +0.000 H 
ATOM    139  H36 UNL A   1      11.934  53.921   5.465  1.00  0.00    +0.000 H 
ATOM    140  H37 UNL A   1      11.462  51.434   5.264  1.00  0.00    +0.000 H 
ATOM    141  H38 UNL A   1      14.456  52.378   2.541  1.00  0.00    +0.000 H 
ATOM    142  H39 UNL A   1      15.515  57.230   3.305  1.00  0.00    +0.000 H 
ATOM    143  H40 UNL A   1      17.213  57.023   1.401  1.00  0.00    +0.000 H 
ATOM    144  H41 UNL A   1      15.048  47.250   0.401  1.00  0.00    +0.000 H 
ATOM    145  H42 UNL A   1      13.156  47.498   2.110  1.00  0.00    +0.000 H 
ATOM     45  C32 UNL A   1      12.969  50.111   3.244  1.00  0.00    +0.000 C 
ATOM     46  C33 UNL A   1      13.907  49.637   2.172  1.00  0.00    +0.000 C 
ATOM     47  N9  UNL A   1      14.826  50.311   1.524  1.00  0.00    +0.000 N 
ATOM     48  C34 UNL A   1      15.424  49.405   0.659  1.00  0.00    +0.000 C 
ATOM     49  C35 UNL A   1      16.412  49.626  -0.241  1.00  0.00    +0.000 C 
ATOM     61  C42 UNL A   1      17.036  50.906  -0.467  1.00  0.00    +0.000 C 
ATOM     62  C43 UNL A   1      18.017  51.240  -1.385  1.00  0.00    +0.000 C 
ATOM     63  C44 UNL A   1      18.346  52.588  -1.207  1.00  0.00    +0.000 C 
ATOM     64  C45 UNL A   1      17.537  53.107  -0.209  1.00  0.00    +0.000 C 
ATOM     65  N10 UNL A   1      16.740  52.065   0.238  1.00  0.00    +0.000 N 
ATOM     66  C46 UNL A   1      17.495  54.454   0.300  1.00  0.00    +0.000 C 
ATOM     78  C53 UNL A   1      16.651  54.898   1.264  1.00  0.00    +0.000 C 
ATOM     79  N11 UNL A   1      15.681  54.195   1.962  1.00  0.00    +0.000 N 
ATOM     80  C54 UNL A   1      15.150  55.051   2.800  1.00  0.00    +0.000 C 
ATOM     81  C55 UNL A   1      14.047  54.841   3.794  1.00  0.00    +0.000 C 
ATOM     93  C62 UNL A   1      13.490  53.621   3.905  1.00  0.00    +0.000 C 
ATOM     94  C63 UNL A   1      12.415  53.268   4.826  1.00  0.00    +0.000 C 
ATOM     95  C64 UNL A   1      12.153  51.959   4.706  1.00  0.00    +0.000 C 
ATOM     96  C65 UNL A   1      13.004  51.392   3.658  1.00  0.00    +0.000 C 
ATOM     97  N12 UNL A   1      13.771  52.451   3.244  1.00  0.00    +0.000 N 
ATOM     98  C66 UNL A   1      15.736  56.397   2.738  1.00  0.00    +0.000 C 
ATOM     99  C67 UNL A   1      16.620  56.258   1.761  1.00  0.00    +0.000 C 
ATOM    100  C68 UNL A   1      14.782  48.125   0.880  1.00  0.00    +0.000 C 
ATOM    101  C69 UNL A   1      13.810  48.224   1.777  1.00  0.00    +0.000 C 
ENDROOT
BRANCH   45   44
ATOM    102  C70 UNL A   1      12.279  48.441   4.998  1.00  0.00    +0.000 C 
ATOM    103  C71 UNL A   1      11.314  47.608   5.570  1.00  0.00    +0.000 C 
ATOM    134  H31 UNL A   1       8.717  48.409   3.606  1.00  0.00    +0.000 H 
ATOM     41  C28 UNL A   1      10.025  47.558   5.028  1.00  0.00    +0.000 C 
ATOM     42  C29 UNL A   1       9.691  48.375   3.946  1.00  0.00    +0.000 C 
ATOM     43  C30 UNL A   1      10.672  49.144   3.328  1.00  0.00    +0.000 C 
ATOM    135  H32 UNL A   1      10.444  49.678   2.476  1.00  0.00    +0.000 H 
ATOM     44  C31 UNL A   1      11.972  49.197   3.858  1.00  0.00    +0.000 C 
ATOM    146  H43 UNL A   1      13.221  48.499   5.416  1.00  0.00    +0.000 H 
ATOM    147  H44 UNL A   1      11.550  47.030   6.393  1.00  0.00    +0.000 H 
BRANCH   41    2
ATOM      1  O1  UNL A   1       9.218  45.430   5.591  1.00  0.00    +0.000 O 
ATOM      2  C1  UNL A   1       9.029  46.643   5.627  1.00  0.00    +0.000 C 
BRANCH    2    3
ATOM      3  N1  UNL A   1       7.887  47.149   6.196  1.00  0.00    +0.000 N 
ATOM    104  H1  UNL A   1       7.200  47.461   5.563  1.00  0.00    +0.000 H 
BRANCH    3    4
ATOM    105  H2  UNL A   1       7.117  46.371   7.943  1.00  0.00    +0.000 H 
ATOM    106  H3  UNL A   1       6.863  48.107   7.685  1.00  0.00    +0.000 H 
ATOM      4  C2  UNL A   1       7.547  47.290   7.602  1.00  0.00    +0.000 C 
BRANCH    4    5
ATOM    107  H4  UNL A   1       9.561  46.986   8.170  1.00  0.00    +0.000 H 
ATOM    108  H5  UNL A   1       8.433  47.446   9.486  1.00  0.00    +0.000 H 
ATOM      5  C3  UNL A   1       8.750  47.614   8.478  1.00  0.00    +0.000 C 
BRANCH    5    6
ATOM    110  H7  UNL A   1       9.136  49.364   7.404  1.00  0.00    +0.000 H 
ATOM    109  H6  UNL A   1       8.631  49.632   9.106  1.00  0.00    +0.000 H 
ATOM      6  C4  UNL A   1       9.231  49.063   8.426  1.00  0.00    +0.000 C 
BRANCH    6    7
ATOM    111  H8  UNL A   1      11.233  48.388   8.593  1.00  0.00    +0.000 H 
ATOM      7  C5  UNL A   1      10.701  49.295   8.791  1.00  0.00    +0.000 C 
ATOM    112  H9  UNL A   1      10.697  49.589   9.820  1.00  0.00    +0.000 H 
BRANCH    7    8
ATOM    113  H10 UNL A   1      10.665  51.049   7.598  1.00  0.00    +0.000 H 
ATOM    114  H11 UNL A   1      12.059  49.949   7.338  1.00  0.00    +0.000 H 
ATOM      8  C6  UNL A   1      11.413  50.428   8.044  1.00  0.00    +0.000 C 
BRANCH    8    9
ATOM      9  C7  UNL A   1      12.317  51.318   8.894  1.00  0.00    +0.000 C 
ATOM    115  H12 UNL A   1      12.375  50.906   9.880  1.00  0.00    +0.000 H 
ATOM    116  H13 UNL A   1      11.892  52.299   8.902  1.00  0.00    +0.000 H 
BRANCH    9   10
ATOM     10  N2  UNL A   1      13.661  51.424   8.354  1.00  0.00    +0.000 N 
ATOM    117  H14 UNL A   1      13.833  50.907   7.534  1.00  0.00    +0.000 H 
BRANCH   10   11
ATOM     11  C8  UNL A   1      14.722  52.149   8.835  1.00  0.00    +0.000 C 
ATOM     12  O2  UNL A   1      14.846  53.334   8.539  1.00  0.00    +0.000 O 
BRANCH   11   13
ATOM     13  C9  UNL A   1      15.707  51.525   9.744  1.00  0.00    +0.000 C 
ATOM     14  C10 UNL A   1      15.500  51.714  11.118  1.00  0.00    +0.000 C 
ATOM     15  C11 UNL A   1      16.384  51.156  12.039  1.00  0.00    +0.000 C 
ATOM     16  C12 UNL A   1      17.466  50.407  11.589  1.00  0.00    +0.000 C 
ATOM     17  C13 UNL A   1      17.682  50.233  10.217  1.00  0.00    +0.000 C 
ATOM     18  C14 UNL A   1      16.826  50.812   9.266  1.00  0.00    +0.000 C 
ATOM    118  H15 UNL A   1      14.693  52.266  11.447  1.00  0.00    +0.000 H 
ATOM    119  H16 UNL A   1      16.235  51.298  13.050  1.00  0.00    +0.000 H 
ATOM    120  H17 UNL A   1      18.113  49.978  12.269  1.00  0.00    +0.000 H 
ATOM    121  H18 UNL A   1      18.485  49.669   9.899  1.00  0.00    +0.000 H 
BRANCH   18   19
ATOM    122  H19 UNL A   1      17.612  51.458   7.496  1.00  0.00    +0.000 H 
ATOM     19  N3  UNL A   1      17.086  50.722   7.882  1.00  0.00    +0.000 N 
BRANCH   19   20
ATOM     40  N8  UNL A   1      15.887  48.792   7.486  1.00  0.00    +0.000 N 
ATOM     20  C15 UNL A   1      16.696  49.722   6.993  1.00  0.00    +0.000 C 
ATOM     21  N4  UNL A   1      17.152  49.727   5.752  1.00  0.00    +0.000 N 
ATOM     22  C16 UNL A   1      16.733  48.701   5.031  1.00  0.00    +0.000 C 
ATOM     23 Cl1  UNL A   1      17.289  48.644   3.416  1.00  0.00    +0.000 Cl
ATOM     24  N5  UNL A   1      15.919  47.731   5.402  1.00  0.00    +0.000 N 
ATOM     25  C17 UNL A   1      15.500  47.831   6.652  1.00  0.00    +0.000 C 
BRANCH   25   26
ATOM     26  N6  UNL A   1      14.537  46.953   7.163  1.00  0.00    +0.000 N 
ATOM    123  H20 UNL A   1      14.234  46.222   6.576  1.00  0.00    +0.000 H 
BRANCH   26   27
ATOM    132  H29 UNL A   1      14.468  48.411  11.461  1.00  0.00    +0.000 H 
ATOM    133  H30 UNL A   1      15.442  48.299   9.250  1.00  0.00    +0.000 H 
ATOM     38  C26 UNL A   1      14.028  47.819  10.738  1.00  0.00    +0.000 C 
ATOM     39  C27 UNL A   1      14.576  47.776   9.453  1.00  0.00    +0.000 C 
ATOM    124  H21 UNL A   1      12.370  45.718   8.022  1.00  0.00    +0.000 H 
ATOM    125  H22 UNL A   1      11.475  45.714  10.273  1.00  0.00    +0.000 H 
ATOM     27  C18 UNL A   1      13.966  47.032   8.442  1.00  0.00    +0.000 C 
ATOM     28  C19 UNL A   1      12.828  46.282   8.755  1.00  0.00    +0.000 C 
ATOM     29  C20 UNL A   1      12.303  46.290  10.052  1.00  0.00    +0.000 C 
ATOM     30  C21 UNL A   1      12.890  47.072  11.056  1.00  0.00    +0.000 C 
BRANCH   30   31
ATOM     33  C23 UNL A   1      11.993  45.909  14.555  1.00  0.00    +0.000 C 
ATOM    129  H26 UNL A   1      10.980  45.651  14.323  1.00  0.00    +0.000 H 
ATOM     35  C24 UNL A   1      11.402  48.156  14.411  1.00  0.00    +0.000 C 
ATOM     36  C25 UNL A   1      11.787  48.237  12.922  1.00  0.00    +0.000 C 
ATOM     37  O4  UNL A   1      11.493  49.243  12.273  1.00  0.00    +0.000 O 
ATOM     34  O3  UNL A   1      12.026  47.170  15.216  1.00  0.00    +0.000 O 
ATOM    130  H27 UNL A   1      11.624  49.107  14.846  1.00  0.00    +0.000 H 
ATOM    131  H28 UNL A   1      10.371  47.873  14.400  1.00  0.00    +0.000 H 
ATOM    127  H24 UNL A   1      12.681  45.073  12.747  1.00  0.00    +0.000 H 
ATOM    128  H25 UNL A   1      12.412  45.159  15.193  1.00  0.00    +0.000 H 
ATOM    126  H23 UNL A   1      13.829  46.177  13.525  1.00  0.00    +0.000 H 
ATOM     31  N7  UNL A   1      12.350  47.073  12.377  1.00  0.00    +0.000 N 
ATOM     32  C22 UNL A   1      12.806  45.998  13.269  1.00  0.00    +0.000 C 
ENDBRANCH   30   31
ENDBRANCH   26   27
ENDBRANCH   25   26
ENDBRANCH   19   20
ENDBRANCH   18   19
ENDBRANCH   11   13
ENDBRANCH   10   11
ENDBRANCH    9   10
ENDBRANCH    8    9
ENDBRANCH    7    8
ENDBRANCH    6    7
ENDBRANCH    5    6
ENDBRANCH    4    5
ENDBRANCH    3    4
ENDBRANCH    2    3
ENDBRANCH   41    2
ENDBRANCH   45   44
BRANCH   49   50
ATOM     50  C36 UNL A   1      16.897  48.457  -1.049  1.00  0.00    +0.000 C 
ATOM     51  C37 UNL A   1      16.235  48.043  -2.216  1.00  0.00    +0.000 C 
ATOM     52  F1  UNL A   1      15.104  48.650  -2.602  1.00  0.00    +0.000 F 
ATOM     53  C38 UNL A   1      16.723  46.983  -2.977  1.00  0.00    +0.000 C 
ATOM     54  F2  UNL A   1      16.056  46.583  -4.070  1.00  0.00    +0.000 F 
ATOM     55  C39 UNL A   1      17.892  46.337  -2.606  1.00  0.00    +0.000 C 
ATOM     56  F3  UNL A   1      18.366  45.326  -3.346  1.00  0.00    +0.000 F 
ATOM     57  C40 UNL A   1      18.569  46.738  -1.465  1.00  0.00    +0.000 C 
ATOM     58  F4  UNL A   1      19.708  46.125  -1.111  1.00  0.00    +0.000 F 
ATOM     59  C41 UNL A   1      18.072  47.781  -0.688  1.00  0.00    +0.000 C 
ATOM     60  F5  UNL A   1      18.747  48.143   0.414  1.00  0.00    +0.000 F 
ENDBRANCH   49   50
BRANCH   66   67
ATOM     67  C47 UNL A   1      18.441  55.459  -0.288  1.00  0.00    +0.000 C 
ATOM     68  C48 UNL A   1      18.196  56.055  -1.534  1.00  0.00    +0.000 C 
ATOM     69  F6  UNL A   1      17.116  55.703  -2.249  1.00  0.00    +0.000 F 
ATOM     70  C49 UNL A   1      19.085  56.982  -2.070  1.00  0.00    +0.000 C 
ATOM     71  F7  UNL A   1      18.857  57.501  -3.285  1.00  0.00    +0.000 F 
ATOM     72  C50 UNL A   1      20.216  57.353  -1.358  1.00  0.00    +0.000 C 
ATOM     73  F8  UNL A   1      21.071  58.246  -1.876  1.00  0.00    +0.000 F 
ATOM     74  C51 UNL A   1      20.467  56.792  -0.116  1.00  0.00    +0.000 C 
ATOM     75  F9  UNL A   1      21.555  57.157   0.577  1.00  0.00    +0.000 F 
ATOM     76  C52 UNL A   1      19.594  55.845   0.412  1.00  0.00    +0.000 C 
ATOM     77  F10 UNL A   1      19.871  55.305   1.608  1.00  0.00    +0.000 F 
ENDBRANCH   66   67
BRANCH   81   82
ATOM     82  C56 UNL A   1      13.561  55.949   4.653  1.00  0.00    +0.000 C 
ATOM     83  C57 UNL A   1      14.165  56.224   5.887  1.00  0.00    +0.000 C 
ATOM     84  F11 UNL A   1      15.174  55.455   6.325  1.00  0.00    +0.000 F 
ATOM     85  C58 UNL A   1      13.715  57.269   6.691  1.00  0.00    +0.000 C 
ATOM     86  F12 UNL A   1      14.286  57.488   7.884  1.00  0.00    +0.000 F 
ATOM     87  C59 UNL A   1      12.672  58.077   6.262  1.00  0.00    +0.000 C 
ATOM     88  F13 UNL A   1      12.247  59.090   7.031  1.00  0.00    +0.000 F 
ATOM     89  C60 UNL A   1      12.067  57.832   5.039  1.00  0.00    +0.000 C 
ATOM     90  F14 UNL A   1      11.071  58.621   4.613  1.00  0.00    +0.000 F 
ATOM     91  C61 UNL A   1      12.497  56.769   4.249  1.00  0.00    +0.000 C 
ATOM     92  F15 UNL A   1      11.890  56.550   3.074  1.00  0.00    +0.000 F 
ENDBRANCH   81   82
TORSDOF 20
ENDMDL
MODEL 2
REMARK VINA RESULT:      -9.3      3.446      8.070
ROOT
ATOM    136  H33 UNL A   1      18.793  53.257  -1.206  1.00  0.00    +0.000 H 
ATOM    137  H34 UNL A   1      18.309  50.744  -1.708  1.00  0.00    +0.000 H 
ATOM    138  H35 UNL A   1      15.966  51.907   1.503  1.00  0.00    +0.000 H 
ATOM    139  H36 UNL A   1      11.828  50.413   6.116  1.00  0.00    +0.000 H 
ATOM    140  H37 UNL A   1      12.145  52.907   6.472  1.00  0.00    +0.000 H 
ATOM    141  H38 UNL A   1      14.534  51.772   3.266  1.00  0.00    +0.000 H 
ATOM    142  H39 UNL A   1      13.532  46.912   2.471  1.00  0.00    +0.000 H 
ATOM    143  H40 UNL A   1      15.266  46.999   0.590  1.00  0.00    +0.000 H 
ATOM    144  H41 UNL A   1      16.751  56.805   2.276  1.00  0.00    +0.000 H 
ATOM    145  H42 UNL A   1      15.229  56.678   4.332  1.00  0.00    +0.000 H 
ATOM     45  C32 UNL A   1      14.045  54.111   4.727  1.00  0.00    +0.000 C 
ATOM     46  C33 UNL A   1      15.033  54.517   3.672  1.00  0.00    +0.000 C 
ATOM     47  N9  UNL A   1      15.568  53.791   2.721  1.00  0.00    +0.000 N 
ATOM     48  C34 UNL A   1      16.397  54.647   2.008  1.00  0.00    +0.000 C 
ATOM     49  C35 UNL A   1      17.189  54.363   0.947  1.00  0.00    +0.000 C 
ATOM     61  C42 UNL A   1      17.316  53.055   0.353  1.00  0.00    +0.000 C 
ATOM     62  C43 UNL A   1      18.123  52.658  -0.699  1.00  0.00    +0.000 C 
ATOM     63  C44 UNL A   1      17.875  51.305  -0.958  1.00  0.00    +0.000 C 
ATOM     64  C45 UNL A   1      16.948  50.847  -0.037  1.00  0.00    +0.000 C 
ATOM     65  N10 UNL A   1      16.610  51.931   0.760  1.00  0.00    +0.000 N 
ATOM     66  C46 UNL A   1      16.406  49.519   0.105  1.00  0.00    +0.000 C 
ATOM     78  C53 UNL A   1      15.517  49.137   1.055  1.00  0.00    +0.000 C 
ATOM     79  N11 UNL A   1      14.939  49.895   2.061  1.00  0.00    +0.000 N 
ATOM     80  C54 UNL A   1      14.133  49.085   2.702  1.00  0.00    +0.000 C 
ATOM     81  C55 UNL A   1      13.257  49.366   3.888  1.00  0.00    +0.000 C 
ATOM     93  C62 UNL A   1      13.237  50.608   4.406  1.00  0.00    +0.000 C 
ATOM     94  C63 UNL A   1      12.436  51.027   5.551  1.00  0.00    +0.000 C 
ATOM     95  C64 UNL A   1      12.618  52.340   5.750  1.00  0.00    +0.000 C 
ATOM     96  C65 UNL A   1      13.593  52.843   4.781  1.00  0.00    +0.000 C 
ATOM     97  N12 UNL A   1      13.899  51.746   4.018  1.00  0.00    +0.000 N 
ATOM     98  C66 UNL A   1      14.098  47.719   2.165  1.00  0.00    +0.000 C 
ATOM     99  C67 UNL A   1      14.987  47.795   1.186  1.00  0.00    +0.000 C 
ATOM    100  C68 UNL A   1      16.276  55.955   2.619  1.00  0.00    +0.000 C 
ATOM    101  C69 UNL A   1      15.476  55.919   3.677  1.00  0.00    +0.000 C 
ENDROOT
BRANCH   45   44
ATOM    102  C70 UNL A   1      12.366  55.792   5.560  1.00  0.00    +0.000 C 
ATOM    103  C71 UNL A   1      11.917  56.678   6.544  1.00  0.00    +0.000 C 
ATOM    134  H31 UNL A   1      14.259  56.086   8.869  1.00  0.00    +0.000 H 
ATOM     41  C28 UNL A   1      12.639  56.823   7.733  1.00  0.00    +0.000 C 
ATOM     42  C29 UNL A   1      13.781  56.049   7.956  1.00  0.00    +0.000 C 
ATOM     43  C30 UNL A   1      14.270  55.228   6.946  1.00  0.00    +0.000 C 
ATOM    135  H32 UNL A   1      15.161  54.724   7.080  1.00  0.00    +0.000 H 
ATOM     44  C31 UNL A   1      13.558  55.078   5.743  1.00  0.00    +0.000 C 
ATOM    146  H43 UNL A   1      11.817  55.664   4.695  1.00  0.00    +0.000 H 
ATOM    147  H44 UNL A   1      11.054  57.224   6.394  1.00  0.00    +0.000 H 
BRANCH   41    2
ATOM      1  O1  UNL A   1      12.344  58.994   8.567  1.00  0.00    +0.000 O 
ATOM      2  C1  UNL A   1      12.167  57.791   8.746  1.00  0.00    +0.000 C 
BRANCH    2    3
ATOM      3  N1  UNL A   1      11.558  57.344   9.892  1.00  0.00    +0.000 N 
ATOM    104  H1  UNL A   1      12.165  57.112  10.632  1.00  0.00    +0.000 H 
BRANCH    3    4
ATOM    105  H2  UNL A   1       9.610  58.008   9.778  1.00  0.00    +0.000 H 
ATOM    106  H3  UNL A   1      10.033  57.079  11.229  1.00  0.00    +0.000 H 
ATOM      4  C2  UNL A   1      10.142  57.165  10.168  1.00  0.00    +0.000 C 
BRANCH    4    5
ATOM    107  H4  UNL A   1       9.713  55.956   8.489  1.00  0.00    +0.000 H 
ATOM    108  H5  UNL A   1       8.539  55.869   9.840  1.00  0.00    +0.000 H 
ATOM      5  C3  UNL A   1       9.568  55.899   9.547  1.00  0.00    +0.000 C 
BRANCH    5    6
ATOM    110  H7  UNL A   1      10.832  54.856  10.843  1.00  0.00    +0.000 H 
ATOM    109  H6  UNL A   1       9.380  53.938  10.321  1.00  0.00    +0.000 H 
ATOM      6  C4  UNL A   1      10.181  54.588  10.037  1.00  0.00    +0.000 C 
BRANCH    6    7
ATOM    111  H8  UNL A   1      12.048  54.237   9.098  1.00  0.00    +0.000 H 
ATOM      7  C5  UNL A   1      11.057  53.840   9.027  1.00  0.00    +0.000 C 
ATOM    112  H9  UNL A   1      10.588  53.988   8.077  1.00  0.00    +0.000 H 
BRANCH    7    8
ATOM    113  H10 UNL A   1      11.689  52.128  10.109  1.00  0.00    +0.000 H 
ATOM    114  H11 UNL A   1      11.630  51.952   8.323  1.00  0.00    +0.000 H 
ATOM      8  C6  UNL A   1      11.148  52.320   9.206  1.00  0.00    +0.000 C 
BRANCH    8    9
ATOM      9  C7  UNL A   1       9.816  51.580   9.290  1.00  0.00    +0.000 C 
ATOM    115  H12 UNL A   1       9.288  51.718   8.369  1.00  0.00    +0.000 H 
ATOM    116  H13 UNL A   1       9.273  51.981  10.119  1.00  0.00    +0.000 H 
BRANCH    9   10
ATOM     10  N2  UNL A   1       9.984  50.156   9.520  1.00  0.00    +0.000 N 
ATOM    117  H14 UNL A   1       9.707  49.831  10.407  1.00  0.00    +0.000 H 
BRANCH   10   11
ATOM     11  C8  UNL A   1      10.477  49.203   8.665  1.00  0.00    +0.000 C 
ATOM     12  O2  UNL A   1      10.232  49.264   7.462  1.00  0.00    +0.000 O 
BRANCH   11   13
ATOM     13  C9  UNL A   1      11.339  48.113   9.171  1.00  0.00    +0.000 C 
ATOM     14  C10 UNL A   1      10.686  46.967   9.646  1.00  0.00    +0.000 C 
ATOM     15  C11 UNL A   1      11.429  45.896  10.138  1.00  0.00    +0.000 C 
ATOM     16  C12 UNL A   1      12.818  45.969  10.149  1.00  0.00    +0.000 C 
ATOM     17  C13 UNL A   1      13.468  47.120   9.691  1.00  0.00    +0.000 C 
ATOM     18  C14 UNL A   1      12.743  48.227   9.220  1.00  0.00    +0.000 C 
ATOM    118  H15 UNL A   1       9.656  46.916   9.632  1.00  0.00    +0.000 H 
ATOM    119  H16 UNL A   1      10.950  45.054  10.492  1.00  0.00    +0.000 H 
ATOM    120  H17 UNL A   1      13.372  45.170  10.497  1.00  0.00    +0.000 H 
ATOM    121  H18 UNL A   1      14.500  47.156   9.699  1.00  0.00    +0.000 H 
BRANCH   18   19
ATOM    122  H19 UNL A   1      12.998  49.894   8.068  1.00  0.00    +0.000 H 
ATOM     19  N3  UNL A   1      13.384  49.427   8.844  1.00  0.00    +0.000 N 
BRANCH   19   20
ATOM     40  N8  UNL A   1      14.285  50.586  10.622  1.00  0.00    +0.000 N 
ATOM     20  C15 UNL A   1      14.491  50.036   9.431  1.00  0.00    +0.000 C 
ATOM     21  N4  UNL A   1      15.648  50.063   8.790  1.00  0.00    +0.000 N 
ATOM     22  C16 UNL A   1      16.599  50.706   9.445  1.00  0.00    +0.000 C 
ATOM     23 Cl1  UNL A   1      18.120  50.782   8.671  1.00  0.00    +0.000 Cl
ATOM     24  N5  UNL A   1      16.521  51.274  10.635  1.00  0.00    +0.000 N 
ATOM     25  C17 UNL A   1      15.331  51.169  11.202  1.00  0.00    +0.000 C 
BRANCH   25   26
ATOM     26  N6  UNL A   1      15.116  51.609  12.513  1.00  0.00    +0.000 N 
ATOM    123  H20 UNL A   1      15.772  51.338  13.195  1.00  0.00    +0.000 H 
BRANCH   26   27
ATOM    132  H29 UNL A   1      12.763  55.490  12.605  1.00  0.00    +0.000 H 
ATOM    133  H30 UNL A   1      14.609  54.119  11.856  1.00  0.00    +0.000 H 
ATOM     38  C26 UNL A   1      12.863  54.526  12.964  1.00  0.00    +0.000 C 
ATOM     39  C27 UNL A   1      13.915  53.726  12.510  1.00  0.00    +0.000 C 
ATOM    124  H21 UNL A   1      13.204  50.936  14.200  1.00  0.00    +0.000 H 
ATOM    125  H22 UNL A   1      11.438  52.352  15.063  1.00  0.00    +0.000 H 
ATOM     27  C18 UNL A   1      14.038  52.402  12.934  1.00  0.00    +0.000 C 
ATOM     28  C19 UNL A   1      13.121  51.909  13.869  1.00  0.00    +0.000 C 
ATOM     29  C20 UNL A   1      12.093  52.723  14.357  1.00  0.00    +0.000 C 
ATOM     30  C21 UNL A   1      11.944  54.038  13.898  1.00  0.00    +0.000 C 
BRANCH   30   31
ATOM     33  C23 UNL A   1      10.164  56.811  15.780  1.00  0.00    +0.000 C 
ATOM    129  H26 UNL A   1       9.843  56.195  16.595  1.00  0.00    +0.000 H 
ATOM     35  C24 UNL A   1       8.575  55.772  14.433  1.00  0.00    +0.000 C 
ATOM     36  C25 UNL A   1       9.577  54.710  13.945  1.00  0.00    +0.000 C 
ATOM     37  O4  UNL A   1       9.170  53.748  13.290  1.00  0.00    +0.000 O 
ATOM     34  O3  UNL A   1       9.078  57.019  14.882  1.00  0.00    +0.000 O 
ATOM    130  H27 UNL A   1       7.908  55.973  13.622  1.00  0.00    +0.000 H 
ATOM    131  H28 UNL A   1       8.136  55.336  15.306  1.00  0.00    +0.000 H 
ATOM    127  H24 UNL A   1      12.060  55.891  15.756  1.00  0.00    +0.000 H 
ATOM    128  H25 UNL A   1      10.500  57.753  16.160  1.00  0.00    +0.000 H 
ATOM    126  H23 UNL A   1      11.662  56.787  14.278  1.00  0.00    +0.000 H 
ATOM     31  N7  UNL A   1      10.895  54.863  14.403  1.00  0.00    +0.000 N 
ATOM     32  C22 UNL A   1      11.303  56.124  15.037  1.00  0.00    +0.000 C 
ENDBRANCH   30   31
ENDBRANCH   26   27
ENDBRANCH   25   26
ENDBRANCH   19   20
ENDBRANCH   18   19
ENDBRANCH   11   13
ENDBRANCH   10   11
ENDBRANCH    9   10
ENDBRANCH    8    9
ENDBRANCH    7    8
ENDBRANCH    6    7
ENDBRANCH    5    6
ENDBRANCH    4    5
ENDBRANCH    3    4
ENDBRANCH    2    3
ENDBRANCH   41    2
ENDBRANCH   45   44
BRANCH   49   50
ATOM     50  C36 UNL A   1      17.979  55.487   0.342  1.00  0.00    +0.000 C 
ATOM     51  C37 UNL A   1      19.225  55.873   0.858  1.00  0.00    +0.000 C 
ATOM     52  F1  UNL A   1      19.714  55.280   1.958  1.00  0.00    +0.000 F 
ATOM     53  C38 UNL A   1      19.965  56.891   0.259  1.00  0.00    +0.000 C 
ATOM     54  F2  UNL A   1      21.138  57.265   0.790  1.00  0.00    +0.000 F 
ATOM     55  C39 UNL A   1      19.489  57.520  -0.881  1.00  0.00    +0.000 C 
ATOM     56  F3  UNL A   1      20.207  58.491  -1.463  1.00  0.00    +0.000 F 
ATOM     57  C40 UNL A   1      18.266  57.146  -1.415  1.00  0.00    +0.000 C 
ATOM     58  F4  UNL A   1      17.809  57.744  -2.525  1.00  0.00    +0.000 F 
ATOM     59  C41 UNL A   1      17.513  56.147  -0.805  1.00  0.00    +0.000 C 
ATOM     60  F5  UNL A   1      16.331  55.810  -1.344  1.00  0.00    +0.000 F 
ENDBRANCH   49   50
BRANCH   66   67
ATOM     67  C47 UNL A   1      16.870  48.464  -0.854  1.00  0.00    +0.000 C 
ATOM     68  C48 UNL A   1      18.044  47.730  -0.626  1.00  0.00    +0.000 C 
ATOM     69  F6  UNL A   1      18.803  47.990   0.449  1.00  0.00    +0.000 F 
ATOM     70  C49 UNL A   1      18.465  46.758  -1.528  1.00  0.00    +0.000 C 
ATOM     71  F7  UNL A   1      19.616  46.105  -1.316  1.00  0.00    +0.000 F 
ATOM     72  C50 UNL A   1      17.706  46.478  -2.655  1.00  0.00    +0.000 C 
ATOM     73  F8  UNL A   1      18.114  45.540  -3.522  1.00  0.00    +0.000 F 
ATOM     74  C51 UNL A   1      16.532  47.177  -2.889  1.00  0.00    +0.000 C 
ATOM     75  F9  UNL A   1      15.793  46.901  -3.973  1.00  0.00    +0.000 F 
ATOM     76  C52 UNL A   1      16.121  48.168  -2.003  1.00  0.00    +0.000 C 
ATOM     77  F10 UNL A   1      14.990  48.841  -2.264  1.00  0.00    +0.000 F 
ENDBRANCH   66   67
BRANCH   81   82
ATOM     82  C56 UNL A   1      12.418  48.304   4.497  1.00  0.00    +0.000 C 
ATOM     83  C57 UNL A   1      12.939  47.445   5.474  1.00  0.00    +0.000 C 
ATOM     84  F11 UNL A   1      14.224  47.552   5.844  1.00  0.00    +0.000 F 
ATOM     85  C58 UNL A   1      12.150  46.453   6.052  1.00  0.00    +0.000 C 
ATOM     86  F12 UNL A   1      12.682  45.620   6.958  1.00  0.00    +0.000 F 
ATOM     87  C59 UNL A   1      10.819  46.320   5.685  1.00  0.00    +0.000 C 
ATOM     88  F13 UNL A   1      10.058  45.372   6.250  1.00  0.00    +0.000 F 
ATOM     89  C60 UNL A   1      10.279  47.166   4.729  1.00  0.00    +0.000 C 
ATOM     90  F14 UNL A   1       8.989  47.053   4.385  1.00  0.00    +0.000 F 
ATOM     91  C61 UNL A   1      11.075  48.139   4.130  1.00  0.00    +0.000 C 
ATOM     92  F15 UNL A   1      10.529  48.940   3.203  1.00  0.00    +0.000 F 
ENDBRANCH   81   82
TORSDOF 20
ENDMDL
MODEL 3
REMARK VINA RESULT:      -9.0     24.746     30.562
ROOT
ATOM    136  H33 UNL A   1      20.719  20.342   3.167  1.00  0.00    +0.000 H 
ATOM    137  H34 UNL A   1      21.299  18.038   4.242  1.00  0.00    +0.000 H 
ATOM    138  H35 UNL A   1      17.777  19.413   5.930  1.00  0.00    +0.000 H 
ATOM    139  H36 UNL A   1      13.094  18.732  10.201  1.00  0.00    +0.000 H 
ATOM    140  H37 UNL A   1      12.422  20.871   9.010  1.00  0.00    +0.000 H 
ATOM    141  H38 UNL A   1      15.974  19.539   7.312  1.00  0.00    +0.000 H 
ATOM    142  H39 UNL A   1      16.978  15.141   9.525  1.00  0.00    +0.000 H 
ATOM    143  H40 UNL A   1      19.104  15.061   8.101  1.00  0.00    +0.000 H 
ATOM    144  H41 UNL A   1      16.575  23.727   3.661  1.00  0.00    +0.000 H 
ATOM    145  H42 UNL A   1      14.592  23.965   5.264  1.00  0.00    +0.000 H 
ATOM     45  C32 UNL A   1      14.274  21.749   7.034  1.00  0.00    +0.000 C 
ATOM     46  C33 UNL A   1      15.361  21.970   6.023  1.00  0.00    +0.000 C 
ATOM     47  N9  UNL A   1      16.391  21.212   5.740  1.00  0.00    +0.000 N 
ATOM     48  C34 UNL A   1      17.073  21.860   4.718  1.00  0.00    +0.000 C 
ATOM     49  C35 UNL A   1      18.219  21.486   4.101  1.00  0.00    +0.000 C 
ATOM     61  C42 UNL A   1      18.966  20.295   4.423  1.00  0.00    +0.000 C 
ATOM     62  C43 UNL A   1      20.160  19.851   3.882  1.00  0.00    +0.000 C 
ATOM     63  C44 UNL A   1      20.480  18.622   4.470  1.00  0.00    +0.000 C 
ATOM     64  C45 UNL A   1      19.509  18.322   5.412  1.00  0.00    +0.000 C 
ATOM     65  N10 UNL A   1      18.584  19.355   5.371  1.00  0.00    +0.000 N 
ATOM     66  C46 UNL A   1      19.428  17.178   6.283  1.00  0.00    +0.000 C 
ATOM     78  C53 UNL A   1      18.456  16.966   7.205  1.00  0.00    +0.000 C 
ATOM     79  N11 UNL A   1      17.358  17.755   7.508  1.00  0.00    +0.000 N 
ATOM     80  C54 UNL A   1      16.705  17.116   8.447  1.00  0.00    +0.000 C 
ATOM     81  C55 UNL A   1      15.445  17.512   9.159  1.00  0.00    +0.000 C 
ATOM     93  C62 UNL A   1      14.839  18.666   8.825  1.00  0.00    +0.000 C 
ATOM     94  C63 UNL A   1      13.612  19.176   9.427  1.00  0.00    +0.000 C 
ATOM     95  C64 UNL A   1      13.268  20.315   8.810  1.00  0.00    +0.000 C 
ATOM     96  C65 UNL A   1      14.282  20.644   7.806  1.00  0.00    +0.000 C 
ATOM     97  N12 UNL A   1      15.172  19.605   7.880  1.00  0.00    +0.000 N 
ATOM     98  C66 UNL A   1      17.309  15.836   8.837  1.00  0.00    +0.000 C 
ATOM     99  C67 UNL A   1      18.394  15.810   8.076  1.00  0.00    +0.000 C 
ATOM    100  C68 UNL A   1      16.326  23.062   4.411  1.00  0.00    +0.000 C 
ATOM    101  C69 UNL A   1      15.281  23.198   5.216  1.00  0.00    +0.000 C 
ENDROOT
BRANCH   45   44
ATOM    102  C70 UNL A   1      11.883  22.491   6.767  1.00  0.00    +0.000 C 
ATOM    103  C71 UNL A   1      10.870  23.428   6.984  1.00  0.00    +0.000 C 
ATOM    134  H31 UNL A   1      12.594  25.624   8.841  1.00  0.00    +0.000 H 
ATOM     41  C28 UNL A   1      11.144  24.599   7.699  1.00  0.00    +0.000 C 
ATOM     42  C29 UNL A   1      12.417  24.808   8.235  1.00  0.00    +0.000 C 
ATOM     43  C30 UNL A   1      13.444  23.914   7.951  1.00  0.00    +0.000 C 
ATOM    135  H32 UNL A   1      14.403  24.116   8.274  1.00  0.00    +0.000 H 
ATOM     44  C31 UNL A   1      13.184  22.738   7.228  1.00  0.00    +0.000 C 
ATOM    146  H43 UNL A   1      11.673  21.614   6.264  1.00  0.00    +0.000 H 
ATOM    147  H44 UNL A   1       9.919  23.258   6.618  1.00  0.00    +0.000 H 
BRANCH   41    2
ATOM      1  O1  UNL A   1       9.964  26.186   8.959  1.00  0.00    +0.000 O 
ATOM      2  C1  UNL A   1      10.066  25.594   7.887  1.00  0.00    +0.000 C 
BRANCH    2    3
ATOM      3  N1  UNL A   1       9.168  25.834   6.876  1.00  0.00    +0.000 N 
ATOM    104  H1  UNL A   1       8.242  25.554   7.057  1.00  0.00    +0.000 H 
BRANCH    3    4
ATOM    105  H2  UNL A   1      10.428  26.703   5.496  1.00  0.00    +0.000 H 
ATOM    106  H3  UNL A   1       8.758  27.302   5.513  1.00  0.00    +0.000 H 
ATOM      4  C2  UNL A   1       9.393  26.443   5.576  1.00  0.00    +0.000 C 
BRANCH    4    5
ATOM    107  H4  UNL A   1       9.233  24.518   4.717  1.00  0.00    +0.000 H 
ATOM    108  H5  UNL A   1       9.623  25.854   3.587  1.00  0.00    +0.000 H 
ATOM      5  C3  UNL A   1       9.031  25.525   4.416  1.00  0.00    +0.000 C 
BRANCH    5    6
ATOM    110  H7  UNL A   1       7.622  25.693   2.883  1.00  0.00    +0.000 H 
ATOM    109  H6  UNL A   1       7.083  24.708   4.285  1.00  0.00    +0.000 H 
ATOM      6  C4  UNL A   1       7.579  25.595   3.948  1.00  0.00    +0.000 C 
BRANCH    6    7
ATOM    111  H8  UNL A   1       7.247  27.167   5.329  1.00  0.00    +0.000 H 
ATOM      7  C5  UNL A   1       6.773  26.799   4.443  1.00  0.00    +0.000 C 
ATOM    112  H9  UNL A   1       5.778  26.435   4.593  1.00  0.00    +0.000 H 
BRANCH    7    8
ATOM    113  H10 UNL A   1       5.720  28.478   3.684  1.00  0.00    +0.000 H 
ATOM    114  H11 UNL A   1       6.672  27.539   2.486  1.00  0.00    +0.000 H 
ATOM      8  C6  UNL A   1       6.637  27.971   3.464  1.00  0.00    +0.000 C 
BRANCH    8    9
ATOM      9  C7  UNL A   1       7.762  29.002   3.502  1.00  0.00    +0.000 C 
ATOM    115  H12 UNL A   1       8.158  29.041   4.496  1.00  0.00    +0.000 H 
ATOM    116  H13 UNL A   1       7.352  29.943   3.205  1.00  0.00    +0.000 H 
BRANCH    9   10
ATOM     10  N2  UNL A   1       8.841  28.682   2.584  1.00  0.00    +0.000 N 
ATOM    117  H14 UNL A   1       8.565  28.401   1.682  1.00  0.00    +0.000 H 
BRANCH   10   11
ATOM     11  C8  UNL A   1      10.195  28.719   2.807  1.00  0.00    +0.000 C 
ATOM     12  O2  UNL A   1      10.635  29.141   3.873  1.00  0.00    +0.000 O 
BRANCH   11   13
ATOM     13  C9  UNL A   1      11.138  28.217   1.785  1.00  0.00    +0.000 C 
ATOM     14  C10 UNL A   1      11.398  26.839   1.794  1.00  0.00    +0.000 C 
ATOM     15  C11 UNL A   1      12.275  26.290   0.861  1.00  0.00    +0.000 C 
ATOM     16  C12 UNL A   1      12.883  27.113  -0.081  1.00  0.00    +0.000 C 
ATOM     17  C13 UNL A   1      12.636  28.490  -0.078  1.00  0.00    +0.000 C 
ATOM     18  C14 UNL A   1      11.783  29.075   0.871  1.00  0.00    +0.000 C 
ATOM    118  H15 UNL A   1      10.941  26.232   2.492  1.00  0.00    +0.000 H 
ATOM    119  H16 UNL A   1      12.471  25.277   0.870  1.00  0.00    +0.000 H 
ATOM    120  H17 UNL A   1      13.520  26.706  -0.784  1.00  0.00    +0.000 H 
ATOM    121  H18 UNL A   1      13.090  29.087  -0.788  1.00  0.00    +0.000 H 
BRANCH   18   19
ATOM    122  H19 UNL A   1      10.714  30.775   1.243  1.00  0.00    +0.000 H 
ATOM     19  N3  UNL A   1      11.600  30.473   0.942  1.00  0.00    +0.000 N 
BRANCH   19   20
ATOM     40  N8  UNL A   1      13.616  31.503   1.383  1.00  0.00    +0.000 N 
ATOM     20  C15 UNL A   1      12.515  31.480   0.641  1.00  0.00    +0.000 C 
ATOM     21  N4  UNL A   1      12.246  32.353  -0.315  1.00  0.00    +0.000 N 
ATOM     22  C16 UNL A   1      13.181  33.276  -0.467  1.00  0.00    +0.000 C 
ATOM     23 Cl1  UNL A   1      12.894  34.439  -1.685  1.00  0.00    +0.000 Cl
ATOM     24  N5  UNL A   1      14.319  33.390   0.192  1.00  0.00    +0.000 N 
ATOM     25  C17 UNL A   1      14.504  32.454   1.108  1.00  0.00    +0.000 C 
BRANCH   25   26
ATOM     26  N6  UNL A   1      15.712  32.360   1.809  1.00  0.00    +0.000 N 
ATOM    123  H20 UNL A   1      15.781  32.849   2.661  1.00  0.00    +0.000 H 
BRANCH   26   27
ATOM    132  H29 UNL A   1      20.000  30.947   2.277  1.00  0.00    +0.000 H 
ATOM    133  H30 UNL A   1      18.061  32.191   3.011  1.00  0.00    +0.000 H 
ATOM     38  C26 UNL A   1      19.147  30.954   1.695  1.00  0.00    +0.000 C 
ATOM     39  C27 UNL A   1      18.018  31.651   2.132  1.00  0.00    +0.000 C 
ATOM    124  H21 UNL A   1      15.954  30.921  -0.389  1.00  0.00    +0.000 H 
ATOM    125  H22 UNL A   1      17.940  29.794  -1.197  1.00  0.00    +0.000 H 
ATOM     27  C18 UNL A   1      16.834  31.628   1.393  1.00  0.00    +0.000 C 
ATOM     28  C19 UNL A   1      16.818  30.940   0.175  1.00  0.00    +0.000 C 
ATOM     29  C20 UNL A   1      17.961  30.278  -0.285  1.00  0.00    +0.000 C 
ATOM     30  C21 UNL A   1      19.136  30.265   0.478  1.00  0.00    +0.000 C 
BRANCH   30   31
ATOM     33  C23 UNL A   1      22.455  29.645  -1.252  1.00  0.00    +0.000 C 
ATOM    129  H26 UNL A   1      22.036  29.182  -2.122  1.00  0.00    +0.000 H 
ATOM     35  C24 UNL A   1      21.948  27.723  -0.042  1.00  0.00    +0.000 C 
ATOM     36  C25 UNL A   1      20.581  28.275   0.400  1.00  0.00    +0.000 C 
ATOM     37  O4  UNL A   1      19.780  27.528   0.967  1.00  0.00    +0.000 O 
ATOM     34  O3  UNL A   1      22.970  28.645  -0.380  1.00  0.00    +0.000 O 
ATOM    130  H27 UNL A   1      22.319  27.118   0.759  1.00  0.00    +0.000 H 
ATOM    131  H28 UNL A   1      21.741  27.213  -0.960  1.00  0.00    +0.000 H 
ATOM    127  H24 UNL A   1      20.941  31.111  -1.232  1.00  0.00    +0.000 H 
ATOM    128  H25 UNL A   1      23.246  30.303  -1.550  1.00  0.00    +0.000 H 
ATOM    126  H23 UNL A   1      21.832  30.957   0.294  1.00  0.00    +0.000 H 
ATOM     31  N7  UNL A   1      20.299  29.590   0.000  1.00  0.00    +0.000 N 
ATOM     32  C22 UNL A   1      21.378  30.438  -0.524  1.00  0.00    +0.000 C 
ENDBRANCH   30   31
ENDBRANCH   26   27
ENDBRANCH   25   26
ENDBRANCH   19   20
ENDBRANCH   18   19
ENDBRANCH   11   13
ENDBRANCH   10   11
ENDBRANCH    9   10
ENDBRANCH    8    9
ENDBRANCH    7    8
ENDBRANCH    6    7
ENDBRANCH    5    6
ENDBRANCH    4    5
ENDBRANCH    3    4
ENDBRANCH    2    3
ENDBRANCH   41    2
ENDBRANCH   45   44
BRANCH   49   50
ATOM     50  C36 UNL A   1      18.741  22.364   3.001  1.00  0.00    +0.000 C 
ATOM     51  C37 UNL A   1      19.723  23.338   3.240  1.00  0.00    +0.000 C 
ATOM     52  F1  UNL A   1      20.175  23.551   4.484  1.00  0.00    +0.000 F 
ATOM     53  C38 UNL A   1      20.227  24.117   2.200  1.00  0.00    +0.000 C 
ATOM     54  F2  UNL A   1      21.141  25.063   2.456  1.00  0.00    +0.000 F 
ATOM     55  C39 UNL A   1      19.782  23.918   0.901  1.00  0.00    +0.000 C 
ATOM     56  F3  UNL A   1      20.277  24.660  -0.099  1.00  0.00    +0.000 F 
ATOM     57  C40 UNL A   1      18.822  22.953   0.641  1.00  0.00    +0.000 C 
ATOM     58  F4  UNL A   1      18.401  22.750  -0.615  1.00  0.00    +0.000 F 
ATOM     59  C41 UNL A   1      18.298  22.190   1.681  1.00  0.00    +0.000 C 
ATOM     60  F5  UNL A   1      17.367  21.267   1.398  1.00  0.00    +0.000 F 
ENDBRANCH   49   50
BRANCH   66   67
ATOM     67  C47 UNL A   1      20.509  16.142   6.187  1.00  0.00    +0.000 C 
ATOM     68  C48 UNL A   1      21.667  16.216   6.974  1.00  0.00    +0.000 C 
ATOM     69  F6  UNL A   1      21.849  17.248   7.812  1.00  0.00    +0.000 F 
ATOM     70  C49 UNL A   1      22.664  15.250   6.870  1.00  0.00    +0.000 C 
ATOM     71  F7  UNL A   1      23.785  15.368   7.596  1.00  0.00    +0.000 F 
ATOM     72  C50 UNL A   1      22.508  14.179   6.003  1.00  0.00    +0.000 C 
ATOM     73  F8  UNL A   1      23.470  13.251   5.905  1.00  0.00    +0.000 F 
ATOM     74  C51 UNL A   1      21.363  14.076   5.230  1.00  0.00    +0.000 C 
ATOM     75  F9  UNL A   1      21.207  13.037   4.398  1.00  0.00    +0.000 F 
ATOM     76  C52 UNL A   1      20.375  15.054   5.311  1.00  0.00    +0.000 C 
ATOM     77  F10 UNL A   1      19.285  14.938   4.539  1.00  0.00    +0.000 F 
ENDBRANCH   66   67
BRANCH   81   82
ATOM     82  C56 UNL A   1      14.858  16.657  10.221  1.00  0.00    +0.000 C 
ATOM     83  C57 UNL A   1      13.993  15.602   9.902  1.00  0.00    +0.000 C 
ATOM     84  F11 UNL A   1      13.654  15.376   8.624  1.00  0.00    +0.000 F 
ATOM     85  C58 UNL A   1      13.448  14.793  10.898  1.00  0.00    +0.000 C 
ATOM     86  F12 UNL A   1      12.594  13.814  10.570  1.00  0.00    +0.000 F 
ATOM     87  C59 UNL A   1      13.782  15.007  12.228  1.00  0.00    +0.000 C 
ATOM     88  F13 UNL A   1      13.266  14.221  13.184  1.00  0.00    +0.000 F 
ATOM     89  C60 UNL A   1      14.645  16.037  12.565  1.00  0.00    +0.000 C 
ATOM     90  F14 UNL A   1      14.984  16.236  13.847  1.00  0.00    +0.000 F 
ATOM     91  C61 UNL A   1      15.166  16.864  11.574  1.00  0.00    +0.000 C 
ATOM     92  F15 UNL A   1      15.994  17.857  11.929  1.00  0.00    +0.000 F 
ENDBRANCH   81   82
TORSDOF 20
ENDMDL
MODEL 4
REMARK VINA RESULT:      -8.9      1.319      2.216
ROOT
ATOM    136  H33 UNL A   1      18.157  50.928  -2.232  1.00  0.00    +0.000 H 
ATOM    137  H34 UNL A   1      18.689  53.411  -1.643  1.00  0.00    +0.000 H 
ATOM    138  H35 UNL A   1      16.171  51.893   1.272  1.00  0.00    +0.000 H 
ATOM    139  H36 UNL A   1      12.648  52.794   6.508  1.00  0.00    +0.000 H 
ATOM    140  H37 UNL A   1      12.297  50.321   6.048  1.00  0.00    +0.000 H 
ATOM    141  H38 UNL A   1      14.801  51.816   3.087  1.00  0.00    +0.000 H 
ATOM    142  H39 UNL A   1      15.676  56.606   4.330  1.00  0.00    +0.000 H 
ATOM    143  H40 UNL A   1      17.086  56.763   2.200  1.00  0.00    +0.000 H 
ATOM    144  H41 UNL A   1      15.371  47.048   0.230  1.00  0.00    +0.000 H 
ATOM    145  H42 UNL A   1      13.738  46.940   2.201  1.00  0.00    +0.000 H 
ATOM     45  C32 UNL A   1      13.568  49.373   3.684  1.00  0.00    +0.000 C 
ATOM     46  C33 UNL A   1      14.365  49.107   2.440  1.00  0.00    +0.000 C 
ATOM     47  N9  UNL A   1      15.138  49.923   1.766  1.00  0.00    +0.000 N 
ATOM     48  C34 UNL A   1      15.655  49.177   0.715  1.00  0.00    +0.000 C 
ATOM     49  C35 UNL A   1      16.486  49.582  -0.276  1.00  0.00    +0.000 C 
ATOM     61  C42 UNL A   1      16.995  50.924  -0.415  1.00  0.00    +0.000 C 
ATOM     62  C43 UNL A   1      17.810  51.441  -1.407  1.00  0.00    +0.000 C 
ATOM     63  C44 UNL A   1      18.082  52.779  -1.099  1.00  0.00    +0.000 C 
ATOM     64  C45 UNL A   1      17.399  53.109   0.059  1.00  0.00    +0.000 C 
ATOM     65  N10 UNL A   1      16.738  51.962   0.471  1.00  0.00    +0.000 N 
ATOM     66  C46 UNL A   1      17.354  54.377   0.742  1.00  0.00    +0.000 C 
ATOM     78  C53 UNL A   1      16.635  54.633   1.863  1.00  0.00    +0.000 C 
ATOM     79  N11 UNL A   1      15.820  53.779   2.589  1.00  0.00    +0.000 N 
ATOM     80  C54 UNL A   1      15.369  54.483   3.597  1.00  0.00    +0.000 C 
ATOM     81  C55 UNL A   1      14.436  54.069   4.698  1.00  0.00    +0.000 C 
ATOM     93  C62 UNL A   1      13.973  52.806   4.723  1.00  0.00    +0.000 C 
ATOM     94  C63 UNL A   1      13.067  52.263   5.728  1.00  0.00    +0.000 C 
ATOM     95  C64 UNL A   1      12.868  50.962   5.475  1.00  0.00    +0.000 C 
ATOM     96  C65 UNL A   1      13.588  50.594   4.254  1.00  0.00    +0.000 C 
ATOM     97  N12 UNL A   1      14.223  51.750   3.882  1.00  0.00    +0.000 N 
ATOM     98  C66 UNL A   1      15.859  55.867   3.634  1.00  0.00    +0.000 C 
ATOM     99  C67 UNL A   1      16.598  55.917   2.534  1.00  0.00    +0.000 C 
ATOM    100  C68 UNL A   1      15.128  47.835   0.852  1.00  0.00    +0.000 C 
ATOM    101  C69 UNL A   1      14.293  47.749   1.879  1.00  0.00    +0.000 C 
ENDROOT
BRANCH   45   44
ATOM    102  C70 UNL A   1      13.285  47.319   5.112  1.00  0.00    +0.000 C 
ATOM    103  C71 UNL A   1      12.467  46.352   5.703  1.00  0.00    +0.000 C 
ATOM    134  H31 UNL A   1       9.487  47.543   4.732  1.00  0.00    +0.000 H 
ATOM     41  C28 UNL A   1      11.081  46.405   5.521  1.00  0.00    +0.000 C 
ATOM     42  C29 UNL A   1      10.513  47.450   4.788  1.00  0.00    +0.000 C 
ATOM     43  C30 UNL A   1      11.331  48.364   4.135  1.00  0.00    +0.000 C 
ATOM    135  H32 UNL A   1      10.913  49.082   3.523  1.00  0.00    +0.000 H 
ATOM     44  C31 UNL A   1      12.726  48.318   4.303  1.00  0.00    +0.000 C 
ATOM    146  H43 UNL A   1      14.305  47.296   5.270  1.00  0.00    +0.000 H 
ATOM    147  H44 UNL A   1      12.884  45.600   6.274  1.00  0.00    +0.000 H 
BRANCH   41    2
ATOM      1  O1  UNL A   1      10.708  44.236   6.327  1.00  0.00    +0.000 O 
ATOM      2  C1  UNL A   1      10.237  45.352   6.126  1.00  0.00    +0.000 C 
BRANCH    2    3
ATOM      3  N1  UNL A   1       8.925  45.616   6.434  1.00  0.00    +0.000 N 
ATOM    104  H1  UNL A   1       8.309  45.657   5.667  1.00  0.00    +0.000 H 
BRANCH    3    4
ATOM    105  H2  UNL A   1       7.856  44.935   8.059  1.00  0.00    +0.000 H 
ATOM    106  H3  UNL A   1       7.606  46.635   7.619  1.00  0.00    +0.000 H 
ATOM      4  C2  UNL A   1       8.317  45.844   7.734  1.00  0.00    +0.000 C 
BRANCH    4    5
ATOM    107  H4  UNL A   1      10.263  46.434   8.312  1.00  0.00    +0.000 H 
ATOM    108  H5  UNL A   1       9.328  45.509   9.530  1.00  0.00    +0.000 H 
ATOM      5  C3  UNL A   1       9.319  46.285   8.793  1.00  0.00    +0.000 C 
BRANCH    5    6
ATOM    110  H7  UNL A   1       8.026  47.890   9.138  1.00  0.00    +0.000 H 
ATOM    109  H6  UNL A   1       8.933  47.340  10.587  1.00  0.00    +0.000 H 
ATOM      6  C4  UNL A   1       8.964  47.568   9.542  1.00  0.00    +0.000 C 
BRANCH    6    7
ATOM    111  H8  UNL A   1      10.187  48.784   8.311  1.00  0.00    +0.000 H 
ATOM      7  C5  UNL A   1       9.925  48.745   9.348  1.00  0.00    +0.000 C 
ATOM    112  H9  UNL A   1      10.748  48.554  10.004  1.00  0.00    +0.000 H 
BRANCH    7    8
ATOM    113  H10 UNL A   1       8.492  49.983  10.306  1.00  0.00    +0.000 H 
ATOM    114  H11 UNL A   1       9.258  50.663   8.831  1.00  0.00    +0.000 H 
ATOM      8  C6  UNL A   1       9.394  50.126   9.748  1.00  0.00    +0.000 C 
BRANCH    8    9
ATOM      9  C7  UNL A   1      10.336  50.980  10.592  1.00  0.00    +0.000 C 
ATOM    115  H12 UNL A   1      10.371  50.577  11.583  1.00  0.00    +0.000 H 
ATOM    116  H13 UNL A   1       9.960  51.981  10.588  1.00  0.00    +0.000 H 
BRANCH    9   10
ATOM     10  N2  UNL A   1      11.686  51.014  10.057  1.00  0.00    +0.000 N 
ATOM    117  H14 UNL A   1      11.973  50.208   9.571  1.00  0.00    +0.000 H 
BRANCH   10   11
ATOM     11  C8  UNL A   1      12.615  52.021  10.139  1.00  0.00    +0.000 C 
ATOM     12  O2  UNL A   1      12.485  53.039   9.463  1.00  0.00    +0.000 O 
BRANCH   11   13
ATOM     13  C9  UNL A   1      13.761  51.913  11.067  1.00  0.00    +0.000 C 
ATOM     14  C10 UNL A   1      13.497  52.158  12.421  1.00  0.00    +0.000 C 
ATOM     15  C11 UNL A   1      14.524  52.073  13.358  1.00  0.00    +0.000 C 
ATOM     16  C12 UNL A   1      15.809  51.738  12.943  1.00  0.00    +0.000 C 
ATOM     17  C13 UNL A   1      16.075  51.510  11.588  1.00  0.00    +0.000 C 
ATOM     18  C14 UNL A   1      15.066  51.621  10.619  1.00  0.00    +0.000 C 
ATOM    118  H15 UNL A   1      12.541  52.402  12.725  1.00  0.00    +0.000 H 
ATOM    119  H16 UNL A   1      14.332  52.258  14.355  1.00  0.00    +0.000 H 
ATOM    120  H17 UNL A   1      16.569  51.658  13.637  1.00  0.00    +0.000 H 
ATOM    121  H18 UNL A   1      17.032  51.255  11.297  1.00  0.00    +0.000 H 
BRANCH   18   19
ATOM    122  H19 UNL A   1      15.522  52.322   8.756  1.00  0.00    +0.000 H 
ATOM     19  N3  UNL A   1      15.342  51.485   9.242  1.00  0.00    +0.000 N 
BRANCH   19   20
ATOM     40  N8  UNL A   1      14.764  49.267   8.991  1.00  0.00    +0.000 N 
ATOM     20  C15 UNL A   1      15.396  50.318   8.482  1.00  0.00    +0.000 C 
ATOM     21  N4  UNL A   1      16.071  50.300   7.345  1.00  0.00    +0.000 N 
ATOM     22  C16 UNL A   1      16.072  49.119   6.750  1.00  0.00    +0.000 C 
ATOM     23 Cl1  UNL A   1      16.930  49.025   5.275  1.00  0.00    +0.000 Cl
ATOM     24  N5  UNL A   1      15.468  48.014   7.145  1.00  0.00    +0.000 N 
ATOM     25  C17 UNL A   1      14.800  48.144   8.279  1.00  0.00    +0.000 C 
BRANCH   25   26
ATOM     26  N6  UNL A   1      14.006  47.102   8.771  1.00  0.00    +0.000 N 
ATOM    123  H20 UNL A   1      13.873  46.319   8.189  1.00  0.00    +0.000 H 
BRANCH   26   27
ATOM    132  H29 UNL A   1      12.982  48.951  12.789  1.00  0.00    +0.000 H 
ATOM    133  H30 UNL A   1      14.039  48.997  10.614  1.00  0.00    +0.000 H 
ATOM     38  C26 UNL A   1      12.917  48.126  12.171  1.00  0.00    +0.000 C 
ATOM     39  C27 UNL A   1      13.506  48.163  10.904  1.00  0.00    +0.000 C 
ATOM    124  H21 UNL A   1      12.613  45.129   9.833  1.00  0.00    +0.000 H 
ATOM    125  H22 UNL A   1      11.677  45.025  12.065  1.00  0.00    +0.000 H 
ATOM     27  C18 UNL A   1      13.381  47.084  10.028  1.00  0.00    +0.000 C 
ATOM     28  C19 UNL A   1      12.705  45.940  10.464  1.00  0.00    +0.000 C 
ATOM     29  C20 UNL A   1      12.153  45.885  11.749  1.00  0.00    +0.000 C 
ATOM     30  C21 UNL A   1      12.240  46.984  12.612  1.00  0.00    +0.000 C 
BRANCH   30   31
ATOM     33  C23 UNL A   1       9.750  47.316  15.456  1.00  0.00    +0.000 C 
ATOM    129  H26 UNL A   1      10.180  48.206  15.869  1.00  0.00    +0.000 H 
ATOM     35  C24 UNL A   1      11.566  46.115  16.277  1.00  0.00    +0.000 C 
ATOM     36  C25 UNL A   1      12.354  46.269  14.964  1.00  0.00    +0.000 C 
ATOM     37  O4  UNL A   1      13.539  45.927  14.923  1.00  0.00    +0.000 O 
ATOM     34  O3  UNL A   1      10.151  46.189  16.227  1.00  0.00    +0.000 O 
ATOM    130  H27 UNL A   1      11.819  45.160  16.687  1.00  0.00    +0.000 H 
ATOM    131  H28 UNL A   1      11.854  46.967  16.857  1.00  0.00    +0.000 H 
ATOM    127  H24 UNL A   1      10.000  48.038  13.492  1.00  0.00    +0.000 H 
ATOM    128  H25 UNL A   1       8.683  47.400  15.472  1.00  0.00    +0.000 H 
ATOM    126  H23 UNL A   1       9.725  46.289  13.600  1.00  0.00    +0.000 H 
ATOM     31  N7  UNL A   1      11.676  46.919  13.922  1.00  0.00    +0.000 N 
ATOM     32  C22 UNL A   1      10.226  47.136  14.021  1.00  0.00    +0.000 C 
ENDBRANCH   30   31
ENDBRANCH   26   27
ENDBRANCH   25   26
ENDBRANCH   19   20
ENDBRANCH   18   19
ENDBRANCH   11   13
ENDBRANCH   10   11
ENDBRANCH    9   10
ENDBRANCH    8    9
ENDBRANCH    7    8
ENDBRANCH    6    7
ENDBRANCH    5    6
ENDBRANCH    4    5
ENDBRANCH    3    4
ENDBRANCH    2    3
ENDBRANCH   41    2
ENDBRANCH   45   44
BRANCH   49   50
ATOM     50  C36 UNL A   1      16.915  48.561  -1.289  1.00  0.00    +0.000 C 
ATOM     51  C37 UNL A   1      18.029  47.734  -1.076  1.00  0.00    +0.000 C 
ATOM     52  F1  UNL A   1      18.781  47.886   0.024  1.00  0.00    +0.000 F 
ATOM     53  C38 UNL A   1      18.389  46.763  -2.008  1.00  0.00    +0.000 C 
ATOM     54  F2  UNL A   1      19.476  46.007  -1.799  1.00  0.00    +0.000 F 
ATOM     55  C39 UNL A   1      17.629  46.580  -3.153  1.00  0.00    +0.000 C 
ATOM     56  F3  UNL A   1      17.969  45.637  -4.042  1.00  0.00    +0.000 F 
ATOM     57  C40 UNL A   1      16.517  47.376  -3.378  1.00  0.00    +0.000 C 
ATOM     58  F4  UNL A   1      15.772  47.192  -4.477  1.00  0.00    +0.000 F 
ATOM     59  C41 UNL A   1      16.169  48.365  -2.461  1.00  0.00    +0.000 C 
ATOM     60  F5  UNL A   1      15.090  49.123  -2.709  1.00  0.00    +0.000 F 
ENDBRANCH   49   50
BRANCH   66   67
ATOM     67  C47 UNL A   1      18.143  55.515   0.167  1.00  0.00    +0.000 C 
ATOM     68  C48 UNL A   1      17.680  56.244  -0.938  1.00  0.00    +0.000 C 
ATOM     69  F6  UNL A   1      16.525  55.906  -1.532  1.00  0.00    +0.000 F 
ATOM     70  C49 UNL A   1      18.426  57.294  -1.465  1.00  0.00    +0.000 C 
ATOM     71  F7  UNL A   1      17.988  57.944  -2.552  1.00  0.00    +0.000 F 
ATOM     72  C50 UNL A   1      19.630  57.655  -0.878  1.00  0.00    +0.000 C 
ATOM     73  F8  UNL A   1      20.346  58.668  -1.387  1.00  0.00    +0.000 F 
ATOM     74  C51 UNL A   1      20.096  56.962   0.227  1.00  0.00    +0.000 C 
ATOM     75  F9  UNL A   1      21.255  57.316   0.801  1.00  0.00    +0.000 F 
ATOM     76  C52 UNL A   1      19.366  55.894   0.741  1.00  0.00    +0.000 C 
ATOM     77  F10 UNL A   1      19.850  55.229   1.801  1.00  0.00    +0.000 F 
ENDBRANCH   66   67
BRANCH   81   82
ATOM     82  C56 UNL A   1      14.017  55.024   5.754  1.00  0.00    +0.000 C 
ATOM     83  C57 UNL A   1      13.094  56.042   5.481  1.00  0.00    +0.000 C 
ATOM     84  F11 UNL A   1      12.604  56.187   4.241  1.00  0.00    +0.000 F 
ATOM     85  C58 UNL A   1      12.693  56.934   6.474  1.00  0.00    +0.000 C 
ATOM     86  F12 UNL A   1      11.837  57.922   6.179  1.00  0.00    +0.000 F 
ATOM     87  C59 UNL A   1      13.187  56.806   7.764  1.00  0.00    +0.000 C 
ATOM     88  F13 UNL A   1      12.792  57.658   8.721  1.00  0.00    +0.000 F 
ATOM     89  C60 UNL A   1      14.092  55.799   8.060  1.00  0.00    +0.000 C 
ATOM     90  F14 UNL A   1      14.558  55.661   9.309  1.00  0.00    +0.000 F 
ATOM     91  C61 UNL A   1      14.515  54.926   7.062  1.00  0.00    +0.000 C 
ATOM     92  F15 UNL A   1      15.397  53.965   7.374  1.00  0.00    +0.000 F 
ENDBRANCH   81   82
TORSDOF 20
ENDMDL
MODEL 5
REMARK VINA RESULT:      -8.8      2.477      4.380
ROOT
ATOM    136  H33 UNL A   1      18.289  50.574  -2.147  1.00  0.00    +0.000 H 
ATOM    137  H34 UNL A   1      18.827  53.108  -1.851  1.00  0.00    +0.000 H 
ATOM    138  H35 UNL A   1      16.034  52.027   1.008  1.00  0.00    +0.000 H 
ATOM    139  H36 UNL A   1      12.100  53.667   5.748  1.00  0.00    +0.000 H 
ATOM    140  H37 UNL A   1      11.731  51.160   5.594  1.00  0.00    +0.000 H 
ATOM    141  H38 UNL A   1      14.513  52.212   2.690  1.00  0.00    +0.000 H 
ATOM    142  H39 UNL A   1      15.390  57.115   3.355  1.00  0.00    +0.000 H 
ATOM    143  H40 UNL A   1      16.980  56.966   1.354  1.00  0.00    +0.000 H 
ATOM    144  H41 UNL A   1      15.213  47.095   0.556  1.00  0.00    +0.000 H 
ATOM    145  H42 UNL A   1      13.416  47.274   2.373  1.00  0.00    +0.000 H 
ATOM     45  C32 UNL A   1      13.176  49.886   3.497  1.00  0.00    +0.000 C 
ATOM     46  C33 UNL A   1      14.070  49.445   2.375  1.00  0.00    +0.000 C 
ATOM     47  N9  UNL A   1      14.917  50.154   1.669  1.00  0.00    +0.000 N 
ATOM     48  C34 UNL A   1      15.504  49.267   0.775  1.00  0.00    +0.000 C 
ATOM     49  C35 UNL A   1      16.426  49.524  -0.183  1.00  0.00    +0.000 C 
ATOM     61  C42 UNL A   1      16.976  50.829  -0.455  1.00  0.00    +0.000 C 
ATOM     62  C43 UNL A   1      17.884  51.198  -1.432  1.00  0.00    +0.000 C 
ATOM     63  C44 UNL A   1      18.161  52.562  -1.284  1.00  0.00    +0.000 C 
ATOM     64  C45 UNL A   1      17.389  53.053  -0.244  1.00  0.00    +0.000 C 
ATOM     65  N10 UNL A   1      16.668  51.980   0.258  1.00  0.00    +0.000 N 
ATOM     66  C46 UNL A   1      17.315  54.402   0.258  1.00  0.00    +0.000 C 
ATOM     78  C53 UNL A   1      16.510  54.816   1.267  1.00  0.00    +0.000 C 
ATOM     79  N11 UNL A   1      15.616  54.077   2.026  1.00  0.00    +0.000 N 
ATOM     80  C54 UNL A   1      15.097  54.916   2.888  1.00  0.00    +0.000 C 
ATOM     81  C55 UNL A   1      14.065  54.666   3.948  1.00  0.00    +0.000 C 
ATOM     93  C62 UNL A   1      13.572  53.423   4.100  1.00  0.00    +0.000 C 
ATOM     94  C63 UNL A   1      12.571  53.031   5.086  1.00  0.00    +0.000 C 
ATOM     95  C64 UNL A   1      12.364  51.710   4.992  1.00  0.00    +0.000 C 
ATOM     96  C65 UNL A   1      13.177  51.172   3.899  1.00  0.00    +0.000 C 
ATOM     97  N12 UNL A   1      13.868  52.260   3.433  1.00  0.00    +0.000 N 
ATOM     98  C66 UNL A   1      15.615  56.286   2.782  1.00  0.00    +0.000 C 
ATOM     99  C67 UNL A   1      16.445  56.179   1.755  1.00  0.00    +0.000 C 
ATOM    100  C68 UNL A   1      14.936  47.962   1.044  1.00  0.00    +0.000 C 
ATOM    101  C69 UNL A   1      14.015  48.025   1.996  1.00  0.00    +0.000 C 
ENDROOT
BRANCH   45   44
ATOM    102  C70 UNL A   1      12.714  48.085   5.195  1.00  0.00    +0.000 C 
ATOM    103  C71 UNL A   1      11.825  47.216   5.835  1.00  0.00    +0.000 C 
ATOM    134  H31 UNL A   1       8.988  48.197   4.341  1.00  0.00    +0.000 H 
ATOM     41  C28 UNL A   1      10.471  47.222   5.485  1.00  0.00    +0.000 C 
ATOM     42  C29 UNL A   1      10.000  48.128   4.531  1.00  0.00    +0.000 C 
ATOM     43  C30 UNL A   1      10.896  48.935   3.839  1.00  0.00    +0.000 C 
ATOM    135  H32 UNL A   1      10.557  49.540   3.074  1.00  0.00    +0.000 H 
ATOM     44  C31 UNL A   1      12.260  48.934   4.176  1.00  0.00    +0.000 C 
ATOM    146  H43 UNL A   1      13.707  48.101   5.474  1.00  0.00    +0.000 H 
ATOM    147  H44 UNL A   1      12.167  46.572   6.565  1.00  0.00    +0.000 H 
BRANCH   41    2
ATOM      1  O1  UNL A   1       8.533  45.905   5.571  1.00  0.00    +0.000 O 
ATOM      2  C1  UNL A   1       9.554  46.270   6.149  1.00  0.00    +0.000 C 
BRANCH    2    3
ATOM      3  N1  UNL A   1       9.831  45.819   7.415  1.00  0.00    +0.000 N 
ATOM    104  H1  UNL A   1      10.144  44.887   7.475  1.00  0.00    +0.000 H 
BRANCH    3    4
ATOM    105  H2  UNL A   1      10.714  46.667   9.074  1.00  0.00    +0.000 H 
ATOM    106  H3  UNL A   1       9.123  45.926   9.331  1.00  0.00    +0.000 H 
ATOM      4  C2  UNL A   1       9.729  46.523   8.682  1.00  0.00    +0.000 C 
BRANCH    4    5
ATOM    107  H4  UNL A   1       8.300  47.948   9.313  1.00  0.00    +0.000 H 
ATOM    108  H5  UNL A   1       8.670  47.930   7.559  1.00  0.00    +0.000 H 
ATOM      5  C3  UNL A   1       9.054  47.883   8.557  1.00  0.00    +0.000 C 
BRANCH    5    6
ATOM    110  H7  UNL A   1       9.857  49.660   7.807  1.00  0.00    +0.000 H 
ATOM    109  H6  UNL A   1       9.689  49.615   9.595  1.00  0.00    +0.000 H 
ATOM      6  C4  UNL A   1       9.976  49.092   8.707  1.00  0.00    +0.000 C 
BRANCH    6    7
ATOM    111  H8  UNL A   1      11.983  49.408   8.103  1.00  0.00    +0.000 H 
ATOM      7  C5  UNL A   1      11.473  48.784   8.808  1.00  0.00    +0.000 C 
ATOM    112  H9  UNL A   1      11.563  47.736   8.616  1.00  0.00    +0.000 H 
BRANCH    7    8
ATOM    113  H10 UNL A   1      11.566  48.441  10.900  1.00  0.00    +0.000 H 
ATOM    114  H11 UNL A   1      12.094  50.064  10.345  1.00  0.00    +0.000 H 
ATOM      8  C6  UNL A   1      12.119  49.007  10.180  1.00  0.00    +0.000 C 
BRANCH    8    9
ATOM      9  C7  UNL A   1      13.587  48.604  10.296  1.00  0.00    +0.000 C 
ATOM    115  H12 UNL A   1      13.678  47.855  11.054  1.00  0.00    +0.000 H 
ATOM    116  H13 UNL A   1      14.147  49.482  10.540  1.00  0.00    +0.000 H 
BRANCH    9   10
ATOM     10  N2  UNL A   1      14.119  48.074   9.053  1.00  0.00    +0.000 N 
ATOM    117  H14 UNL A   1      13.449  47.792   8.388  1.00  0.00    +0.000 H 
BRANCH   10   11
ATOM     11  C8  UNL A   1      15.430  47.914   8.681  1.00  0.00    +0.000 C 
ATOM     12  O2  UNL A   1      16.232  47.392   9.451  1.00  0.00    +0.000 O 
BRANCH   11   13
ATOM     13  C9  UNL A   1      15.886  48.331   7.338  1.00  0.00    +0.000 C 
ATOM     14  C10 UNL A   1      15.657  47.429   6.290  1.00  0.00    +0.000 C 
ATOM     15  C11 UNL A   1      16.056  47.750   4.994  1.00  0.00    +0.000 C 
ATOM     16  C12 UNL A   1      16.675  48.971   4.747  1.00  0.00    +0.000 C 
ATOM     17  C13 UNL A   1      16.919  49.864   5.797  1.00  0.00    +0.000 C 
ATOM     18  C14 UNL A   1      16.557  49.551   7.117  1.00  0.00    +0.000 C 
ATOM    118  H15 UNL A   1      15.194  46.526   6.477  1.00  0.00    +0.000 H 
ATOM    119  H16 UNL A   1      15.893  47.085   4.223  1.00  0.00    +0.000 H 
ATOM    120  H17 UNL A   1      16.957  49.219   3.785  1.00  0.00    +0.000 H 
ATOM    121  H18 UNL A   1      17.373  50.768   5.596  1.00  0.00    +0.000 H 
BRANCH   18   19
ATOM    122  H19 UNL A   1      17.841  50.550   8.351  1.00  0.00    +0.000 H 
ATOM     19  N3  UNL A   1      16.881  50.402   8.195  1.00  0.00    +0.000 N 
BRANCH   19   20
ATOM     40  N8  UNL A   1      14.927  51.584   8.515  1.00  0.00    +0.000 N 
ATOM     20  C15 UNL A   1      16.016  51.060   9.066  1.00  0.00    +0.000 C 
ATOM     21  N4  UNL A   1      16.317  51.156  10.351  1.00  0.00    +0.000 N 
ATOM     22  C16 UNL A   1      15.430  51.839  11.052  1.00  0.00    +0.000 C 
ATOM     23 Cl1  UNL A   1      15.760  52.004  12.720  1.00  0.00    +0.000 Cl
ATOM     24  N5  UNL A   1      14.307  52.387  10.623  1.00  0.00    +0.000 N 
ATOM     25  C17 UNL A   1      14.086  52.213   9.331  1.00  0.00    +0.000 C 
BRANCH   25   26
ATOM     26  N6  UNL A   1      12.884  52.624   8.744  1.00  0.00    +0.000 N 
ATOM    123  H20 UNL A   1      12.575  52.130   7.951  1.00  0.00    +0.000 H 
BRANCH   26   27
ATOM    132  H29 UNL A   1      12.189  56.992   9.765  1.00  0.00    +0.000 H 
ATOM    133  H30 UNL A   1      13.562  55.170   8.965  1.00  0.00    +0.000 H 
ATOM     38  C26 UNL A   1      11.809  56.031   9.758  1.00  0.00    +0.000 C 
ATOM     39  C27 UNL A   1      12.594  54.983   9.271  1.00  0.00    +0.000 C 
ATOM    124  H21 UNL A   1      10.403  52.490   9.632  1.00  0.00    +0.000 H 
ATOM    125  H22 UNL A   1       9.077  54.288  10.569  1.00  0.00    +0.000 H 
ATOM     27  C18 UNL A   1      12.084  53.686   9.194  1.00  0.00    +0.000 C 
ATOM     28  C19 UNL A   1      10.792  53.445   9.671  1.00  0.00    +0.000 C 
ATOM     29  C20 UNL A   1      10.021  54.486  10.200  1.00  0.00    +0.000 C 
ATOM     30  C21 UNL A   1      10.516  55.795  10.235  1.00  0.00    +0.000 C 
BRANCH   30   31
ATOM     33  C23 UNL A   1       7.790  58.412  10.575  1.00  0.00    +0.000 C 
ATOM    129  H26 UNL A   1       8.407  59.243  10.302  1.00  0.00    +0.000 H 
ATOM     35  C24 UNL A   1       8.903  58.318  12.617  1.00  0.00    +0.000 C 
ATOM     36  C25 UNL A   1       9.932  57.301  12.092  1.00  0.00    +0.000 C 
ATOM     37  O4  UNL A   1      10.917  57.024  12.781  1.00  0.00    +0.000 O 
ATOM     34  O3  UNL A   1       7.633  58.378  11.990  1.00  0.00    +0.000 O 
ATOM    130  H27 UNL A   1       8.736  58.094  13.650  1.00  0.00    +0.000 H 
ATOM    131  H28 UNL A   1       9.344  59.270  12.408  1.00  0.00    +0.000 H 
ATOM    127  H24 UNL A   1       8.638  57.211   9.066  1.00  0.00    +0.000 H 
ATOM    128  H25 UNL A   1       6.831  58.517  10.111  1.00  0.00    +0.000 H 
ATOM    126  H23 UNL A   1       7.776  56.306  10.323  1.00  0.00    +0.000 H 
ATOM     31  N7  UNL A   1       9.725  56.851  10.779  1.00  0.00    +0.000 N 
ATOM     32  C22 UNL A   1       8.442  57.116  10.113  1.00  0.00    +0.000 C 
ENDBRANCH   30   31
ENDBRANCH   26   27
ENDBRANCH   25   26
ENDBRANCH   19   20
ENDBRANCH   18   19
ENDBRANCH   11   13
ENDBRANCH   10   11
ENDBRANCH    9   10
ENDBRANCH    8    9
ENDBRANCH    7    8
ENDBRANCH    6    7
ENDBRANCH    5    6
ENDBRANCH    4    5
ENDBRANCH    3    4
ENDBRANCH    2    3
ENDBRANCH   41    2
ENDBRANCH   45   44
BRANCH   49   50
ATOM     50  C36 UNL A   1      16.916  48.371  -1.010  1.00  0.00    +0.000 C 
ATOM     51  C37 UNL A   1      16.235  47.950  -2.163  1.00  0.00    +0.000 C 
ATOM     52  F1  UNL A   1      15.082  48.536  -2.519  1.00  0.00    +0.000 F 
ATOM     53  C38 UNL A   1      16.726  46.904  -2.943  1.00  0.00    +0.000 C 
ATOM     54  F2  UNL A   1      16.042  46.498  -4.022  1.00  0.00    +0.000 F 
ATOM     55  C39 UNL A   1      17.917  46.282  -2.604  1.00  0.00    +0.000 C 
ATOM     56  F3  UNL A   1      18.394  45.285  -3.362  1.00  0.00    +0.000 F 
ATOM     57  C40 UNL A   1      18.613  46.690  -1.476  1.00  0.00    +0.000 C 
ATOM     58  F4  UNL A   1      19.772  46.098  -1.154  1.00  0.00    +0.000 F 
ATOM     59  C41 UNL A   1      18.113  47.717  -0.681  1.00  0.00    +0.000 C 
ATOM     60  F5  UNL A   1      18.806  48.087   0.407  1.00  0.00    +0.000 F 
ENDBRANCH   49   50
BRANCH   66   67
ATOM     67  C47 UNL A   1      18.177  55.443  -0.393  1.00  0.00    +0.000 C 
ATOM     68  C48 UNL A   1      19.415  55.815   0.150  1.00  0.00    +0.000 C 
ATOM     69  F6  UNL A   1      19.839  55.266   1.299  1.00  0.00    +0.000 F 
ATOM     70  C49 UNL A   1      20.201  56.786  -0.462  1.00  0.00    +0.000 C 
ATOM     71  F7  UNL A   1      21.358  57.162   0.103  1.00  0.00    +0.000 F 
ATOM     72  C50 UNL A   1      19.781  57.379  -1.643  1.00  0.00    +0.000 C 
ATOM     73  F8  UNL A   1      20.541  58.314  -2.231  1.00  0.00    +0.000 F 
ATOM     74  C51 UNL A   1      18.570  57.012  -2.208  1.00  0.00    +0.000 C 
ATOM     75  F9  UNL A   1      18.167  57.578  -3.355  1.00  0.00    +0.000 F 
ATOM     76  C52 UNL A   1      17.769  56.060  -1.585  1.00  0.00    +0.000 C 
ATOM     77  F10 UNL A   1      16.593  55.737  -2.146  1.00  0.00    +0.000 F 
ENDBRANCH   66   67
BRANCH   81   82
ATOM     82  C56 UNL A   1      13.580  55.759   4.826  1.00  0.00    +0.000 C 
ATOM     83  C57 UNL A   1      14.303  56.146   5.963  1.00  0.00    +0.000 C 
ATOM     84  F11 UNL A   1      15.431  55.499   6.291  1.00  0.00    +0.000 F 
ATOM     85  C58 UNL A   1      13.853  57.178   6.783  1.00  0.00    +0.000 C 
ATOM     86  F12 UNL A   1      14.543  57.505   7.885  1.00  0.00    +0.000 F 
ATOM     87  C59 UNL A   1      12.687  57.862   6.466  1.00  0.00    +0.000 C 
ATOM     88  F13 UNL A   1      12.262  58.862   7.250  1.00  0.00    +0.000 F 
ATOM     89  C60 UNL A   1      11.963  57.504   5.340  1.00  0.00    +0.000 C 
ATOM     90  F14 UNL A   1      10.846  58.173   5.021  1.00  0.00    +0.000 F 
ATOM     91  C61 UNL A   1      12.396  56.453   4.536  1.00  0.00    +0.000 C 
ATOM     92  F15 UNL A   1      11.672  56.124   3.456  1.00  0.00    +0.000 F 
ENDBRANCH   81   82
TORSDOF 20
ENDMDL
MODEL 6
REMARK VINA RESULT:      -8.8      3.148      8.256
ROOT
ATOM    136  H33 UNL A   1      18.619  53.231  -0.905  1.00  0.00    +0.000 H 
ATOM    137  H34 UNL A   1      18.167  50.727  -1.473  1.00  0.00    +0.000 H 
ATOM    138  H35 UNL A   1      15.781  51.784   1.742  1.00  0.00    +0.000 H 
ATOM    139  H36 UNL A   1      11.616  50.133   6.276  1.00  0.00    +0.000 H 
ATOM    140  H37 UNL A   1      11.902  52.620   6.696  1.00  0.00    +0.000 H 
ATOM    141  H38 UNL A   1      14.334  51.590   3.487  1.00  0.00    +0.000 H 
ATOM    142  H39 UNL A   1      13.393  46.741   2.563  1.00  0.00    +0.000 H 
ATOM    143  H40 UNL A   1      15.144  46.893   0.702  1.00  0.00    +0.000 H 
ATOM    144  H41 UNL A   1      16.505  56.670   2.642  1.00  0.00    +0.000 H 
ATOM    145  H42 UNL A   1      14.965  56.476   4.679  1.00  0.00    +0.000 H 
ATOM     45  C32 UNL A   1      13.805  53.888   5.000  1.00  0.00    +0.000 C 
ATOM     46  C33 UNL A   1      14.798  54.330   3.965  1.00  0.00    +0.000 C 
ATOM     47  N9  UNL A   1      15.351  53.633   3.002  1.00  0.00    +0.000 N 
ATOM     48  C34 UNL A   1      16.177  54.516   2.318  1.00  0.00    +0.000 C 
ATOM     49  C35 UNL A   1      16.982  54.266   1.258  1.00  0.00    +0.000 C 
ATOM     61  C42 UNL A   1      17.129  52.975   0.634  1.00  0.00    +0.000 C 
ATOM     62  C43 UNL A   1      17.951  52.613  -0.420  1.00  0.00    +0.000 C 
ATOM     63  C44 UNL A   1      17.720  51.264  -0.714  1.00  0.00    +0.000 C 
ATOM     64  C45 UNL A   1      16.789  50.773   0.187  1.00  0.00    +0.000 C 
ATOM     65  N10 UNL A   1      16.432  51.833   1.006  1.00  0.00    +0.000 N 
ATOM     66  C46 UNL A   1      16.261  49.437   0.290  1.00  0.00    +0.000 C 
ATOM     78  C53 UNL A   1      15.367  49.022   1.222  1.00  0.00    +0.000 C 
ATOM     79  N11 UNL A   1      14.771  49.748   2.240  1.00  0.00    +0.000 N 
ATOM     80  C54 UNL A   1      13.968  48.915   2.853  1.00  0.00    +0.000 C 
ATOM     81  C55 UNL A   1      13.078  49.157   4.037  1.00  0.00    +0.000 C 
ATOM     93  C62 UNL A   1      13.038  50.385   4.586  1.00  0.00    +0.000 C 
ATOM     94  C63 UNL A   1      12.222  50.767   5.732  1.00  0.00    +0.000 C 
ATOM     95  C64 UNL A   1      12.387  52.077   5.965  1.00  0.00    +0.000 C 
ATOM     96  C65 UNL A   1      13.366  52.614   5.018  1.00  0.00    +0.000 C 
ATOM     97  N12 UNL A   1      13.692  51.539   4.232  1.00  0.00    +0.000 N 
ATOM     98  C66 UNL A   1      13.953  47.562   2.283  1.00  0.00    +0.000 C 
ATOM     99  C67 UNL A   1      14.851  47.671   1.315  1.00  0.00    +0.000 C 
ATOM    100  C68 UNL A   1      16.035  55.807   2.960  1.00  0.00    +0.000 C 
ATOM    101  C69 UNL A   1      15.226  55.737   4.009  1.00  0.00    +0.000 C 
ENDROOT
BRANCH   45   44
ATOM    102  C70 UNL A   1      12.119  55.558   5.841  1.00  0.00    +0.000 C 
ATOM    103  C71 UNL A   1      11.651  56.414   6.841  1.00  0.00    +0.000 C 
ATOM    134  H31 UNL A   1      13.914  55.713   9.214  1.00  0.00    +0.000 H 
ATOM     41  C28 UNL A   1      12.337  56.508   8.056  1.00  0.00    +0.000 C 
ATOM     42  C29 UNL A   1      13.463  55.713   8.286  1.00  0.00    +0.000 C 
ATOM     43  C30 UNL A   1      13.974  54.923   7.263  1.00  0.00    +0.000 C 
ATOM    135  H32 UNL A   1      14.855  54.404   7.406  1.00  0.00    +0.000 H 
ATOM     44  C31 UNL A   1      13.298  54.824   6.035  1.00  0.00    +0.000 C 
ATOM    146  H43 UNL A   1      11.595  55.467   4.956  1.00  0.00    +0.000 H 
ATOM    147  H44 UNL A   1      10.798  56.975   6.686  1.00  0.00    +0.000 H 
BRANCH   41    2
ATOM      1  O1  UNL A   1      12.169  58.630   9.040  1.00  0.00    +0.000 O 
ATOM      2  C1  UNL A   1      11.845  57.446   9.089  1.00  0.00    +0.000 C 
BRANCH    2    3
ATOM      3  N1  UNL A   1      11.050  56.988  10.110  1.00  0.00    +0.000 N 
ATOM    104  H1  UNL A   1      11.530  56.614  10.885  1.00  0.00    +0.000 H 
BRANCH    3    4
ATOM    105  H2  UNL A   1       9.217  57.835   9.698  1.00  0.00    +0.000 H 
ATOM    106  H3  UNL A   1       9.353  56.989  11.251  1.00  0.00    +0.000 H 
ATOM      4  C2  UNL A   1       9.601  56.977  10.211  1.00  0.00    +0.000 C 
BRANCH    4    5
ATOM    107  H4  UNL A   1       9.039  55.807   8.542  1.00  0.00    +0.000 H 
ATOM    108  H5  UNL A   1       7.964  55.704   9.973  1.00  0.00    +0.000 H 
ATOM      5  C3  UNL A   1       8.969  55.729   9.607  1.00  0.00    +0.000 C 
BRANCH    5    6
ATOM    110  H7  UNL A   1      10.445  54.662  10.631  1.00  0.00    +0.000 H 
ATOM    109  H6  UNL A   1       8.855  53.832  10.538  1.00  0.00    +0.000 H 
ATOM      6  C4  UNL A   1       9.601  54.403  10.026  1.00  0.00    +0.000 C 
BRANCH    6    7
ATOM    111  H8  UNL A   1      10.837  54.139   8.325  1.00  0.00    +0.000 H 
ATOM      7  C5  UNL A   1      10.156  53.538   8.890  1.00  0.00    +0.000 C 
ATOM    112  H9  UNL A   1       9.301  53.205   8.341  1.00  0.00    +0.000 H 
BRANCH    7    8
ATOM    113  H10 UNL A   1      11.711  52.548   9.940  1.00  0.00    +0.000 H 
ATOM    114  H11 UNL A   1      11.194  51.786   8.399  1.00  0.00    +0.000 H 
ATOM      8  C6  UNL A   1      10.895  52.262   9.310  1.00  0.00    +0.000 C 
BRANCH    8    9
ATOM      9  C7  UNL A   1      10.061  51.229  10.063  1.00  0.00    +0.000 C 
ATOM    115  H12 UNL A   1      10.068  50.313   9.509  1.00  0.00    +0.000 H 
ATOM    116  H13 UNL A   1       9.071  51.621  10.164  1.00  0.00    +0.000 H 
BRANCH    9   10
ATOM     10  N2  UNL A   1      10.570  50.968  11.398  1.00  0.00    +0.000 N 
ATOM    117  H14 UNL A   1      11.537  50.791  11.459  1.00  0.00    +0.000 H 
BRANCH   10   11
ATOM     11  C8  UNL A   1       9.884  50.936  12.586  1.00  0.00    +0.000 C 
ATOM     12  O2  UNL A   1       9.134  51.860  12.892  1.00  0.00    +0.000 O 
BRANCH   11   13
ATOM     13  C9  UNL A   1      10.006  49.775  13.492  1.00  0.00    +0.000 C 
ATOM     14  C10 UNL A   1      10.994  49.856  14.485  1.00  0.00    +0.000 C 
ATOM     15  C11 UNL A   1      11.170  48.803  15.379  1.00  0.00    +0.000 C 
ATOM     16  C12 UNL A   1      10.359  47.677  15.287  1.00  0.00    +0.000 C 
ATOM     17  C13 UNL A   1       9.385  47.590  14.285  1.00  0.00    +0.000 C 
ATOM     18  C14 UNL A   1       9.208  48.622  13.350  1.00  0.00    +0.000 C 
ATOM    118  H15 UNL A   1      11.590  50.695  14.552  1.00  0.00    +0.000 H 
ATOM    119  H16 UNL A   1      11.900  48.859  16.107  1.00  0.00    +0.000 H 
ATOM    120  H17 UNL A   1      10.476  46.902  15.959  1.00  0.00    +0.000 H 
ATOM    121  H18 UNL A   1       8.786  46.750  14.234  1.00  0.00    +0.000 H 
BRANCH   18   19
ATOM    122  H19 UNL A   1       7.450  49.000  12.381  1.00  0.00    +0.000 H 
ATOM     19  N3  UNL A   1       8.294  48.504  12.281  1.00  0.00    +0.000 N 
BRANCH   19   20
ATOM     40  N8  UNL A   1       9.680  47.480  10.748  1.00  0.00    +0.000 N 
ATOM     20  C15 UNL A   1       8.435  47.777  11.100  1.00  0.00    +0.000 C 
ATOM     21  N4  UNL A   1       7.366  47.451  10.394  1.00  0.00    +0.000 N 
ATOM     22  C16 UNL A   1       7.648  46.799   9.279  1.00  0.00    +0.000 C 
ATOM     23 Cl1  UNL A   1       6.310  46.350   8.316  1.00  0.00    +0.000 Cl
ATOM     24  N5  UNL A   1       8.836  46.431   8.835  1.00  0.00    +0.000 N 
ATOM     25  C17 UNL A   1       9.836  46.783   9.627  1.00  0.00    +0.000 C 
BRANCH   25   26
ATOM     26  N6  UNL A   1      11.145  46.363   9.363  1.00  0.00    +0.000 N 
ATOM    123  H20 UNL A   1      11.284  45.409   9.168  1.00  0.00    +0.000 H 
BRANCH   26   27
ATOM    132  H29 UNL A   1      13.177  50.400   8.934  1.00  0.00    +0.000 H 
ATOM    133  H30 UNL A   1      11.222  48.976   8.967  1.00  0.00    +0.000 H 
ATOM     38  C26 UNL A   1      13.288  49.382   9.070  1.00  0.00    +0.000 C 
ATOM     39  C27 UNL A   1      12.156  48.563   9.116  1.00  0.00    +0.000 C 
ATOM    124  H21 UNL A   1      13.662  45.635   9.665  1.00  0.00    +0.000 H 
ATOM    125  H22 UNL A   1      15.630  47.036   9.488  1.00  0.00    +0.000 H 
ATOM     27  C18 UNL A   1      12.275  47.194   9.358  1.00  0.00    +0.000 C 
ATOM     28  C19 UNL A   1      13.555  46.647   9.496  1.00  0.00    +0.000 C 
ATOM     29  C20 UNL A   1      14.692  47.458   9.407  1.00  0.00    +0.000 C 
ATOM     30  C21 UNL A   1      14.569  48.839   9.208  1.00  0.00    +0.000 C 
BRANCH   30   31
ATOM     33  C23 UNL A   1      17.666  50.783  10.223  1.00  0.00    +0.000 C 
ATOM    129  H26 UNL A   1      17.194  51.744  10.215  1.00  0.00    +0.000 H 
ATOM     35  C24 UNL A   1      17.595  50.781   7.896  1.00  0.00    +0.000 C 
ATOM     36  C25 UNL A   1      16.241  50.047   7.866  1.00  0.00    +0.000 C 
ATOM     37  O4  UNL A   1      15.635  49.937   6.799  1.00  0.00    +0.000 O 
ATOM     34  O3  UNL A   1      18.427  50.614   9.032  1.00  0.00    +0.000 O 
ATOM    130  H27 UNL A   1      18.151  50.452   7.044  1.00  0.00    +0.000 H 
ATOM    131  H28 UNL A   1      17.331  51.818   7.915  1.00  0.00    +0.000 H 
ATOM    127  H24 UNL A   1      15.988  49.903  11.146  1.00  0.00    +0.000 H 
ATOM    128  H25 UNL A   1      18.312  50.715  11.074  1.00  0.00    +0.000 H 
ATOM    126  H23 UNL A   1      17.096  48.746  10.386  1.00  0.00    +0.000 H 
ATOM     31  N7  UNL A   1      15.733  49.660   9.116  1.00  0.00    +0.000 N 
ATOM     32  C22 UNL A   1      16.606  49.693  10.298  1.00  0.00    +0.000 C 
ENDBRANCH   30   31
ENDBRANCH   26   27
ENDBRANCH   25   26
ENDBRANCH   19   20
ENDBRANCH   18   19
ENDBRANCH   11   13
ENDBRANCH   10   11
ENDBRANCH    9   10
ENDBRANCH    8    9
ENDBRANCH    7    8
ENDBRANCH    6    7
ENDBRANCH    5    6
ENDBRANCH    4    5
ENDBRANCH    3    4
ENDBRANCH    2    3
ENDBRANCH   41    2
ENDBRANCH   45   44
BRANCH   49   50
ATOM     50  C36 UNL A   1      17.765  55.414   0.689  1.00  0.00    +0.000 C 
ATOM     51  C37 UNL A   1      17.248  56.221  -0.336  1.00  0.00    +0.000 C 
ATOM     52  F1  UNL A   1      16.054  55.941  -0.880  1.00  0.00    +0.000 F 
ATOM     53  C38 UNL A   1      17.970  57.308  -0.825  1.00  0.00    +0.000 C 
ATOM     54  F2  UNL A   1      17.471  58.046  -1.827  1.00  0.00    +0.000 F 
ATOM     55  C39 UNL A   1      19.205  57.626  -0.281  1.00  0.00    +0.000 C 
ATOM     56  F3  UNL A   1      19.893  58.679  -0.744  1.00  0.00    +0.000 F 
ATOM     57  C40 UNL A   1      19.729  56.849   0.741  1.00  0.00    +0.000 C 
ATOM     58  F4  UNL A   1      20.917  57.163   1.278  1.00  0.00    +0.000 F 
ATOM     59  C41 UNL A   1      19.022  55.748   1.215  1.00  0.00    +0.000 C 
ATOM     60  F5  UNL A   1      19.558  55.013   2.201  1.00  0.00    +0.000 F 
ENDBRANCH   49   50
BRANCH   66   67
ATOM     67  C47 UNL A   1      16.746  48.410  -0.690  1.00  0.00    +0.000 C 
ATOM     68  C48 UNL A   1      17.995  47.788  -0.543  1.00  0.00    +0.000 C 
ATOM     69  F6  UNL A   1      18.805  48.134   0.469  1.00  0.00    +0.000 F 
ATOM     70  C49 UNL A   1      18.433  46.842  -1.464  1.00  0.00    +0.000 C 
ATOM     71  F7  UNL A   1      19.652  46.297  -1.333  1.00  0.00    +0.000 F 
ATOM     72  C50 UNL A   1      17.621  46.476  -2.527  1.00  0.00    +0.000 C 
ATOM     73  F8  UNL A   1      18.046  45.563  -3.412  1.00  0.00    +0.000 F 
ATOM     74  C51 UNL A   1      16.375  47.063  -2.680  1.00  0.00    +0.000 C 
ATOM     75  F9  UNL A   1      15.585  46.703  -3.701  1.00  0.00    +0.000 F 
ATOM     76  C52 UNL A   1      15.943  48.029  -1.776  1.00  0.00    +0.000 C 
ATOM     77  F10 UNL A   1      14.740  48.593  -1.958  1.00  0.00    +0.000 F 
ENDBRANCH   66   67
BRANCH   81   82
ATOM     82  C56 UNL A   1      12.245  48.070   4.612  1.00  0.00    +0.000 C 
ATOM     83  C57 UNL A   1      10.888  47.950   4.282  1.00  0.00    +0.000 C 
ATOM     84  F11 UNL A   1      10.315  48.848   3.466  1.00  0.00    +0.000 F 
ATOM     85  C58 UNL A   1      10.108  46.926   4.814  1.00  0.00    +0.000 C 
ATOM     86  F12 UNL A   1       8.804  46.855   4.512  1.00  0.00    +0.000 F 
ATOM     87  C59 UNL A   1      10.676  45.986   5.662  1.00  0.00    +0.000 C 
ATOM     88  F13 UNL A   1       9.927  44.995   6.164  1.00  0.00    +0.000 F 
ATOM     89  C60 UNL A   1      12.019  46.078   5.991  1.00  0.00    +0.000 C 
ATOM     90  F14 UNL A   1      12.577  45.162   6.796  1.00  0.00    +0.000 F 
ATOM     91  C61 UNL A   1      12.793  47.119   5.484  1.00  0.00    +0.000 C 
ATOM     92  F15 UNL A   1      14.088  47.188   5.825  1.00  0.00    +0.000 F 
ENDBRANCH   81   82
TORSDOF 20
ENDMDL
MODEL 7
REMARK VINA RESULT:      -8.7      2.682      8.283
ROOT
ATOM    136  H33 UNL A   1      15.950  57.628   3.105  1.00  0.00    +0.000 H 
ATOM    137  H34 UNL A   1      16.849  57.406   0.668  1.00  0.00    +0.000 H 
ATOM    138  H35 UNL A   1      15.891  53.623   2.053  1.00  0.00    +0.000 H 
ATOM    139  H36 UNL A   1      15.801  47.309   1.181  1.00  0.00    +0.000 H 
ATOM    140  H37 UNL A   1      14.734  47.546   3.473  1.00  0.00    +0.000 H 
ATOM    141  H38 UNL A   1      15.710  51.357   2.131  1.00  0.00    +0.000 H 
ATOM    142  H39 UNL A   1      17.479  50.749  -2.533  1.00  0.00    +0.000 H 
ATOM    143  H40 UNL A   1      17.850  53.281  -2.580  1.00  0.00    +0.000 H 
ATOM    144  H41 UNL A   1      13.940  54.125   6.650  1.00  0.00    +0.000 H 
ATOM    145  H42 UNL A   1      13.814  51.573   6.826  1.00  0.00    +0.000 H 
ATOM     45  C32 UNL A   1      14.633  50.217   4.452  1.00  0.00    +0.000 C 
ATOM     46  C33 UNL A   1      14.646  51.694   4.720  1.00  0.00    +0.000 C 
ATOM     47  N9  UNL A   1      15.039  52.670   3.939  1.00  0.00    +0.000 N 
ATOM     48  C34 UNL A   1      14.824  53.841   4.654  1.00  0.00    +0.000 C 
ATOM     49  C35 UNL A   1      15.096  55.115   4.283  1.00  0.00    +0.000 C 
ATOM     61  C42 UNL A   1      15.689  55.488   3.023  1.00  0.00    +0.000 C 
ATOM     62  C43 UNL A   1      16.040  56.750   2.573  1.00  0.00    +0.000 C 
ATOM     63  C44 UNL A   1      16.538  56.629   1.270  1.00  0.00    +0.000 C 
ATOM     64  C45 UNL A   1      16.542  55.287   0.927  1.00  0.00    +0.000 C 
ATOM     65  N10 UNL A   1      16.016  54.598   2.010  1.00  0.00    +0.000 N 
ATOM     66  C46 UNL A   1      16.989  54.677  -0.300  1.00  0.00    +0.000 C 
ATOM     78  C53 UNL A   1      16.988  53.345  -0.554  1.00  0.00    +0.000 C 
ATOM     79  N11 UNL A   1      16.569  52.304   0.260  1.00  0.00    +0.000 N 
ATOM     80  C54 UNL A   1      16.742  51.210  -0.440  1.00  0.00    +0.000 C 
ATOM     81  C55 UNL A   1      16.467  49.786  -0.052  1.00  0.00    +0.000 C 
ATOM     93  C62 UNL A   1      15.955  49.527   1.165  1.00  0.00    +0.000 C 
ATOM     94  C63 UNL A   1      15.634  48.199   1.676  1.00  0.00    +0.000 C 
ATOM     95  C64 UNL A   1      15.087  48.324   2.894  1.00  0.00    +0.000 C 
ATOM     96  C65 UNL A   1      15.071  49.738   3.272  1.00  0.00    +0.000 C 
ATOM     97  N12 UNL A   1      15.598  50.379   2.181  1.00  0.00    +0.000 N 
ATOM     98  C66 UNL A   1      17.280  51.434  -1.787  1.00  0.00    +0.000 C 
ATOM     99  C67 UNL A   1      17.447  52.749  -1.792  1.00  0.00    +0.000 C 
ATOM    100  C68 UNL A   1      14.242  53.458   5.923  1.00  0.00    +0.000 C 
ATOM    101  C69 UNL A   1      14.149  52.139   6.031  1.00  0.00    +0.000 C 
ENDROOT
BRANCH   45   44
ATOM    102  C70 UNL A   1      12.796  49.064   5.732  1.00  0.00    +0.000 C 
ATOM    103  C71 UNL A   1      12.379  48.129   6.683  1.00  0.00    +0.000 C 
ATOM    134  H31 UNL A   1      15.369  46.827   7.464  1.00  0.00    +0.000 H 
ATOM     41  C28 UNL A   1      13.326  47.347   7.354  1.00  0.00    +0.000 C 
ATOM     42  C29 UNL A   1      14.681  47.468   7.039  1.00  0.00    +0.000 C 
ATOM     43  C30 UNL A   1      15.102  48.453   6.152  1.00  0.00    +0.000 C 
ATOM    135  H32 UNL A   1      16.110  48.599   5.987  1.00  0.00    +0.000 H 
ATOM     44  C31 UNL A   1      14.162  49.250   5.476  1.00  0.00    +0.000 C 
ATOM    146  H43 UNL A   1      12.096  49.620   5.216  1.00  0.00    +0.000 H 
ATOM    147  H44 UNL A   1      11.374  48.014   6.890  1.00  0.00    +0.000 H 
BRANCH   41    2
ATOM      1  O1  UNL A   1      13.361  46.418   9.506  1.00  0.00    +0.000 O 
ATOM      2  C1  UNL A   1      12.866  46.388   8.383  1.00  0.00    +0.000 C 
BRANCH    2    3
ATOM      3  N1  UNL A   1      11.910  45.454   8.072  1.00  0.00    +0.000 N 
ATOM    104  H1  UNL A   1      11.922  44.636   8.619  1.00  0.00    +0.000 H 
BRANCH    3    4
ATOM    105  H2  UNL A   1      10.769  44.523   6.630  1.00  0.00    +0.000 H 
ATOM    106  H3  UNL A   1      11.191  46.216   6.315  1.00  0.00    +0.000 H 
ATOM      4  C2  UNL A   1      10.880  45.502   7.047  1.00  0.00    +0.000 C 
BRANCH    4    5
ATOM    107  H4  UNL A   1       8.837  45.148   7.462  1.00  0.00    +0.000 H 
ATOM    108  H5  UNL A   1       9.269  46.830   7.017  1.00  0.00    +0.000 H 
ATOM      5  C3  UNL A   1       9.528  45.958   7.580  1.00  0.00    +0.000 C 
BRANCH    5    6
ATOM    110  H7  UNL A   1       8.536  46.121   9.412  1.00  0.00    +0.000 H 
ATOM    109  H6  UNL A   1      10.312  45.885   9.545  1.00  0.00    +0.000 H 
ATOM      6  C4  UNL A   1       9.507  46.385   9.047  1.00  0.00    +0.000 C 
BRANCH    6    7
ATOM    111  H8  UNL A   1       8.678  48.280   9.505  1.00  0.00    +0.000 H 
ATOM      7  C5  UNL A   1       9.654  47.887   9.309  1.00  0.00    +0.000 C 
ATOM    112  H9  UNL A   1      10.124  48.285   8.435  1.00  0.00    +0.000 H 
BRANCH    7    8
ATOM    113  H10 UNL A   1      11.371  47.586  10.519  1.00  0.00    +0.000 H 
ATOM    114  H11 UNL A   1       9.936  48.276  11.348  1.00  0.00    +0.000 H 
ATOM      8  C6  UNL A   1      10.561  48.284  10.479  1.00  0.00    +0.000 C 
BRANCH    8    9
ATOM      9  C7  UNL A   1      11.156  49.688  10.410  1.00  0.00    +0.000 C 
ATOM    115  H12 UNL A   1      10.873  50.224  11.292  1.00  0.00    +0.000 H 
ATOM    116  H13 UNL A   1      10.780  50.158   9.527  1.00  0.00    +0.000 H 
BRANCH    9   10
ATOM     10  N2  UNL A   1      12.606  49.675  10.320  1.00  0.00    +0.000 N 
ATOM    117  H14 UNL A   1      12.978  49.810   9.419  1.00  0.00    +0.000 H 
BRANCH   10   11
ATOM     11  C8  UNL A   1      13.525  49.500  11.324  1.00  0.00    +0.000 C 
ATOM     12  O2  UNL A   1      13.176  49.043  12.409  1.00  0.00    +0.000 O 
BRANCH   11   13
ATOM     13  C9  UNL A   1      14.950  49.822  11.101  1.00  0.00    +0.000 C 
ATOM     14  C10 UNL A   1      15.643  49.007  10.194  1.00  0.00    +0.000 C 
ATOM     15  C11 UNL A   1      16.989  49.249   9.929  1.00  0.00    +0.000 C 
ATOM     16  C12 UNL A   1      17.638  50.303  10.563  1.00  0.00    +0.000 C 
ATOM     17  C13 UNL A   1      16.951  51.105  11.480  1.00  0.00    +0.000 C 
ATOM     18  C14 UNL A   1      15.603  50.864  11.791  1.00  0.00    +0.000 C 
ATOM    118  H15 UNL A   1      15.157  48.229   9.724  1.00  0.00    +0.000 H 
ATOM    119  H16 UNL A   1      17.502  48.647   9.266  1.00  0.00    +0.000 H 
ATOM    120  H17 UNL A   1      18.631  50.495  10.356  1.00  0.00    +0.000 H 
ATOM    121  H18 UNL A   1      17.444  51.888  11.937  1.00  0.00    +0.000 H 
BRANCH   18   19
ATOM    122  H19 UNL A   1      15.109  51.346  13.713  1.00  0.00    +0.000 H 
ATOM     19  N3  UNL A   1      14.926  51.607  12.782  1.00  0.00    +0.000 N 
BRANCH   19   20
ATOM     40  N8  UNL A   1      14.037  53.236  11.414  1.00  0.00    +0.000 N 
ATOM     20  C15 UNL A   1      14.034  52.664  12.612  1.00  0.00    +0.000 C 
ATOM     21  N4  UNL A   1      13.272  53.054  13.620  1.00  0.00    +0.000 N 
ATOM     22  C16 UNL A   1      12.504  54.091  13.331  1.00  0.00    +0.000 C 
ATOM     23 Cl1  UNL A   1      11.495  54.650  14.591  1.00  0.00    +0.000 Cl
ATOM     24  N5  UNL A   1      12.405  54.728  12.179  1.00  0.00    +0.000 N 
ATOM     25  C17 UNL A   1      13.189  54.245  11.230  1.00  0.00    +0.000 C 
BRANCH   25   26
ATOM     26  N6  UNL A   1      13.115  54.727   9.918  1.00  0.00    +0.000 N 
ATOM    123  H20 UNL A   1      13.718  55.466   9.673  1.00  0.00    +0.000 H 
BRANCH   26   27
ATOM    132  H29 UNL A   1      10.326  55.296   6.382  1.00  0.00    +0.000 H 
ATOM    133  H30 UNL A   1      11.839  56.129   8.075  1.00  0.00    +0.000 H 
ATOM     38  C26 UNL A   1      10.738  54.641   7.066  1.00  0.00    +0.000 C 
ATOM     39  C27 UNL A   1      11.633  55.119   8.028  1.00  0.00    +0.000 C 
ATOM    124  H21 UNL A   1      12.347  52.232   9.546  1.00  0.00    +0.000 H 
ATOM    125  H22 UNL A   1      10.722  51.417   7.944  1.00  0.00    +0.000 H 
ATOM     27  C18 UNL A   1      12.249  54.245   8.925  1.00  0.00    +0.000 C 
ATOM     28  C19 UNL A   1      11.908  52.889   8.882  1.00  0.00    +0.000 C 
ATOM     29  C20 UNL A   1      10.979  52.417   7.949  1.00  0.00    +0.000 C 
ATOM     30  C21 UNL A   1      10.395  53.286   7.019  1.00  0.00    +0.000 C 
BRANCH   30   31
ATOM     33  C23 UNL A   1       7.073  52.490   5.366  1.00  0.00    +0.000 C 
ATOM    129  H26 UNL A   1       7.050  51.463   5.667  1.00  0.00    +0.000 H 
ATOM     35  C24 UNL A   1       8.742  51.955   3.835  1.00  0.00    +0.000 C 
ATOM     36  C25 UNL A   1       9.866  52.286   4.834  1.00  0.00    +0.000 C 
ATOM     37  O4  UNL A   1      11.031  51.994   4.555  1.00  0.00    +0.000 O 
ATOM     34  O3  UNL A   1       7.482  52.581   4.005  1.00  0.00    +0.000 O 
ATOM    130  H27 UNL A   1       9.098  52.218   2.861  1.00  0.00    +0.000 H 
ATOM    131  H28 UNL A   1       8.544  50.916   3.998  1.00  0.00    +0.000 H 
ATOM    127  H24 UNL A   1       7.786  53.087   7.257  1.00  0.00    +0.000 H 
ATOM    128  H25 UNL A   1       6.096  52.912   5.475  1.00  0.00    +0.000 H 
ATOM    126  H23 UNL A   1       8.011  54.292   5.976  1.00  0.00    +0.000 H 
ATOM     31  N7  UNL A   1       9.446  52.797   6.071  1.00  0.00    +0.000 N 
ATOM     32  C22 UNL A   1       8.061  53.256   6.237  1.00  0.00    +0.000 C 
ENDBRANCH   30   31
ENDBRANCH   26   27
ENDBRANCH   25   26
ENDBRANCH   19   20
ENDBRANCH   18   19
ENDBRANCH   11   13
ENDBRANCH   10   11
ENDBRANCH    9   10
ENDBRANCH    8    9
ENDBRANCH    7    8
ENDBRANCH    6    7
ENDBRANCH    5    6
ENDBRANCH    4    5
ENDBRANCH    3    4
ENDBRANCH    2    3
ENDBRANCH   41    2
ENDBRANCH   45   44
BRANCH   49   50
ATOM     50  C36 UNL A   1      14.744  56.214   5.245  1.00  0.00    +0.000 C 
ATOM     51  C37 UNL A   1      13.446  56.742   5.316  1.00  0.00    +0.000 C 
ATOM     52  F1  UNL A   1      12.496  56.317   4.471  1.00  0.00    +0.000 F 
ATOM     53  C38 UNL A   1      13.126  57.732   6.244  1.00  0.00    +0.000 C 
ATOM     54  F2  UNL A   1      11.888  58.246   6.272  1.00  0.00    +0.000 F 
ATOM     55  C39 UNL A   1      14.085  58.190   7.134  1.00  0.00    +0.000 C 
ATOM     56  F3  UNL A   1      13.772  59.133   8.033  1.00  0.00    +0.000 F 
ATOM     57  C40 UNL A   1      15.370  57.672   7.090  1.00  0.00    +0.000 C 
ATOM     58  F4  UNL A   1      16.296  58.103   7.959  1.00  0.00    +0.000 F 
ATOM     59  C41 UNL A   1      15.701  56.701   6.148  1.00  0.00    +0.000 C 
ATOM     60  F5  UNL A   1      16.954  56.223   6.127  1.00  0.00    +0.000 F 
ENDBRANCH   49   50
BRANCH   66   67
ATOM     67  C47 UNL A   1      17.519  55.573  -1.379  1.00  0.00    +0.000 C 
ATOM     68  C48 UNL A   1      16.690  56.062  -2.400  1.00  0.00    +0.000 C 
ATOM     69  F6  UNL A   1      15.398  55.700  -2.451  1.00  0.00    +0.000 F 
ATOM     70  C49 UNL A   1      17.197  56.888  -3.398  1.00  0.00    +0.000 C 
ATOM     71  F7  UNL A   1      16.398  57.302  -4.392  1.00  0.00    +0.000 F 
ATOM     72  C50 UNL A   1      18.531  57.267  -3.377  1.00  0.00    +0.000 C 
ATOM     73  F8  UNL A   1      19.017  58.064  -4.339  1.00  0.00    +0.000 F 
ATOM     74  C51 UNL A   1      19.363  56.813  -2.366  1.00  0.00    +0.000 C 
ATOM     75  F9  UNL A   1      20.651  57.186  -2.339  1.00  0.00    +0.000 F 
ATOM     76  C52 UNL A   1      18.866  55.965  -1.381  1.00  0.00    +0.000 C 
ATOM     77  F10 UNL A   1      19.699  55.526  -0.424  1.00  0.00    +0.000 F 
ENDBRANCH   66   67
BRANCH   81   82
ATOM     82  C56 UNL A   1      16.750  48.665  -0.982  1.00  0.00    +0.000 C 
ATOM     83  C57 UNL A   1      15.867  48.351  -2.024  1.00  0.00    +0.000 C 
ATOM     84  F11 UNL A   1      14.727  49.044  -2.167  1.00  0.00    +0.000 F 
ATOM     85  C58 UNL A   1      16.135  47.304  -2.902  1.00  0.00    +0.000 C 
ATOM     86  F12 UNL A   1      15.257  47.000  -3.868  1.00  0.00    +0.000 F 
ATOM     87  C59 UNL A   1      17.306  46.570  -2.774  1.00  0.00    +0.000 C 
ATOM     88  F13 UNL A   1      17.569  45.571  -3.627  1.00  0.00    +0.000 F 
ATOM     89  C60 UNL A   1      18.200  46.871  -1.759  1.00  0.00    +0.000 C 
ATOM     90  F14 UNL A   1      19.341  46.177  -1.642  1.00  0.00    +0.000 F 
ATOM     91  C61 UNL A   1      17.918  47.898  -0.862  1.00  0.00    +0.000 C 
ATOM     92  F15 UNL A   1      18.798  48.164   0.115  1.00  0.00    +0.000 F 
ENDBRANCH   81   82
TORSDOF 20
ENDMDL
MODEL 8
REMARK VINA RESULT:      -8.7      3.325      7.333
ROOT
ATOM    136  H33 UNL A   1      13.565  46.702   2.258  1.00  0.00    +0.000 H 
ATOM    137  H34 UNL A   1      15.258  47.063   0.309  1.00  0.00    +0.000 H 
ATOM    138  H35 UNL A   1      14.949  50.601   2.438  1.00  0.00    +0.000 H 
ATOM    139  H36 UNL A   1      16.449  56.760   3.115  1.00  0.00    +0.000 H 
ATOM    140  H37 UNL A   1      14.961  56.349   5.131  1.00  0.00    +0.000 H 
ATOM    141  H38 UNL A   1      15.221  52.788   3.003  1.00  0.00    +0.000 H 
ATOM    142  H39 UNL A   1      18.461  53.668  -0.737  1.00  0.00    +0.000 H 
ATOM    143  H40 UNL A   1      18.038  51.258  -1.491  1.00  0.00    +0.000 H 
ATOM    144  H41 UNL A   1      11.869  49.788   6.318  1.00  0.00    +0.000 H 
ATOM    145  H42 UNL A   1      12.061  52.267   6.932  1.00  0.00    +0.000 H 
ATOM     45  C32 UNL A   1      13.866  53.725   5.269  1.00  0.00    +0.000 C 
ATOM     46  C33 UNL A   1      13.464  52.284   5.149  1.00  0.00    +0.000 C 
ATOM     47  N9  UNL A   1      13.840  51.394   4.264  1.00  0.00    +0.000 N 
ATOM     48  C34 UNL A   1      13.196  50.213   4.612  1.00  0.00    +0.000 C 
ATOM     49  C35 UNL A   1      13.242  49.013   3.987  1.00  0.00    +0.000 C 
ATOM     61  C42 UNL A   1      14.001  48.747   2.790  1.00  0.00    +0.000 C 
ATOM     62  C43 UNL A   1      14.079  47.574   2.059  1.00  0.00    +0.000 C 
ATOM     63  C44 UNL A   1      14.976  47.772   1.003  1.00  0.00    +0.000 C 
ATOM     64  C45 UNL A   1      15.421  49.084   1.048  1.00  0.00    +0.000 C 
ATOM     65  N10 UNL A   1      14.817  49.670   2.151  1.00  0.00    +0.000 N 
ATOM     66  C46 UNL A   1      16.331  49.752   0.154  1.00  0.00    +0.000 C 
ATOM     78  C53 UNL A   1      16.700  51.054   0.246  1.00  0.00    +0.000 C 
ATOM     79  N11 UNL A   1      16.316  52.003   1.181  1.00  0.00    +0.000 N 
ATOM     80  C54 UNL A   1      16.958  53.100   0.863  1.00  0.00    +0.000 C 
ATOM     81  C55 UNL A   1      16.915  54.446   1.524  1.00  0.00    +0.000 C 
ATOM     93  C62 UNL A   1      16.142  54.616   2.612  1.00  0.00    +0.000 C 
ATOM     94  C63 UNL A   1      16.003  55.861   3.359  1.00  0.00    +0.000 C 
ATOM     95  C64 UNL A   1      15.203  55.648   4.413  1.00  0.00    +0.000 C 
ATOM     96  C65 UNL A   1      14.727  54.264   4.383  1.00  0.00    +0.000 C 
ATOM     97  N12 UNL A   1      15.342  53.725   3.284  1.00  0.00    +0.000 N 
ATOM     98  C66 UNL A   1      17.836  52.967  -0.307  1.00  0.00    +0.000 C 
ATOM     99  C67 UNL A   1      17.613  51.711  -0.666  1.00  0.00    +0.000 C 
ATOM    100  C68 UNL A   1      12.424  50.492   5.806  1.00  0.00    +0.000 C 
ATOM    101  C69 UNL A   1      12.523  51.768   6.156  1.00  0.00    +0.000 C 
ENDROOT
BRANCH   45   44
ATOM    102  C70 UNL A   1      13.941  54.692   7.593  1.00  0.00    +0.000 C 
ATOM    103  C71 UNL A   1      13.418  55.537   8.575  1.00  0.00    +0.000 C 
ATOM    134  H31 UNL A   1      10.951  56.935   6.786  1.00  0.00    +0.000 H 
ATOM     41  C28 UNL A   1      12.293  56.319   8.295  1.00  0.00    +0.000 C 
ATOM     42  C29 UNL A   1      11.721  56.290   7.021  1.00  0.00    +0.000 C 
ATOM     43  C30 UNL A   1      12.192  55.391   6.070  1.00  0.00    +0.000 C 
ATOM    135  H32 UNL A   1      11.713  55.309   5.160  1.00  0.00    +0.000 H 
ATOM     44  C31 UNL A   1      13.318  54.594   6.341  1.00  0.00    +0.000 C 
ATOM    146  H43 UNL A   1      14.789  54.137   7.790  1.00  0.00    +0.000 H 
ATOM    147  H44 UNL A   1      13.862  55.585   9.506  1.00  0.00    +0.000 H 
BRANCH   41    2
ATOM      1  O1  UNL A   1      12.048  58.366   9.411  1.00  0.00    +0.000 O 
ATOM      2  C1  UNL A   1      11.734  57.180   9.361  1.00  0.00    +0.000 C 
BRANCH    2    3
ATOM      3  N1  UNL A   1      10.891  56.646  10.304  1.00  0.00    +0.000 N 
ATOM    104  H1  UNL A   1       9.929  56.753  10.121  1.00  0.00    +0.000 H 
BRANCH    3    4
ATOM    105  H2  UNL A   1      10.814  56.497  12.358  1.00  0.00    +0.000 H 
ATOM    106  H3  UNL A   1      12.283  55.871  11.586  1.00  0.00    +0.000 H 
ATOM      4  C2  UNL A   1      11.218  55.945  11.534  1.00  0.00    +0.000 C 
BRANCH    4    5
ATOM    107  H4  UNL A   1      10.724  54.117  10.595  1.00  0.00    +0.000 H 
ATOM    108  H5  UNL A   1       9.659  54.619  11.947  1.00  0.00    +0.000 H 
ATOM      5  C3  UNL A   1      10.661  54.529  11.581  1.00  0.00    +0.000 C 
BRANCH    5    6
ATOM    110  H7  UNL A   1      10.644  53.306  13.274  1.00  0.00    +0.000 H 
ATOM    109  H6  UNL A   1      11.735  52.745  11.962  1.00  0.00    +0.000 H 
ATOM      6  C4  UNL A   1      11.372  53.572  12.536  1.00  0.00    +0.000 C 
BRANCH    6    7
ATOM    111  H8  UNL A   1      12.356  54.028  14.357  1.00  0.00    +0.000 H 
ATOM      7  C5  UNL A   1      12.555  54.158  13.313  1.00  0.00    +0.000 C 
ATOM    112  H9  UNL A   1      12.624  55.179  13.002  1.00  0.00    +0.000 H 
BRANCH    7    8
ATOM    113  H10 UNL A   1      13.882  52.504  13.257  1.00  0.00    +0.000 H 
ATOM    114  H11 UNL A   1      14.627  54.098  13.615  1.00  0.00    +0.000 H 
ATOM      8  C6  UNL A   1      13.929  53.546  13.019  1.00  0.00    +0.000 C 
BRANCH    8    9
ATOM      9  C7  UNL A   1      14.419  53.677  11.579  1.00  0.00    +0.000 C 
ATOM    115  H12 UNL A   1      15.224  54.381  11.554  1.00  0.00    +0.000 H 
ATOM    116  H13 UNL A   1      13.593  54.001  10.983  1.00  0.00    +0.000 H 
BRANCH    9   10
ATOM     10  N2  UNL A   1      14.888  52.415  11.035  1.00  0.00    +0.000 N 
ATOM    117  H14 UNL A   1      15.787  52.134  11.322  1.00  0.00    +0.000 H 
BRANCH   10   11
ATOM     11  C8  UNL A   1      14.245  51.562  10.173  1.00  0.00    +0.000 C 
ATOM     12  O2  UNL A   1      13.018  51.533  10.133  1.00  0.00    +0.000 O 
BRANCH   11   13
ATOM     13  C9  UNL A   1      15.018  50.697   9.256  1.00  0.00    +0.000 C 
ATOM     14  C10 UNL A   1      15.393  51.261   8.028  1.00  0.00    +0.000 C 
ATOM     15  C11 UNL A   1      16.125  50.510   7.112  1.00  0.00    +0.000 C 
ATOM     16  C12 UNL A   1      16.486  49.203   7.423  1.00  0.00    +0.000 C 
ATOM     17  C13 UNL A   1      16.097  48.636   8.642  1.00  0.00    +0.000 C 
ATOM     18  C14 UNL A   1      15.331  49.359   9.570  1.00  0.00    +0.000 C 
ATOM    118  H15 UNL A   1      15.127  52.232   7.804  1.00  0.00    +0.000 H 
ATOM    119  H16 UNL A   1      16.397  50.922   6.206  1.00  0.00    +0.000 H 
ATOM    120  H17 UNL A   1      17.042  48.650   6.753  1.00  0.00    +0.000 H 
ATOM    121  H18 UNL A   1      16.378  47.667   8.861  1.00  0.00    +0.000 H 
BRANCH   18   19
ATOM    122  H19 UNL A   1      15.494  48.728  11.506  1.00  0.00    +0.000 H 
ATOM     19  N3  UNL A   1      14.854  48.766  10.759  1.00  0.00    +0.000 N 
BRANCH   19   20
ATOM     40  N8  UNL A   1      13.049  48.553  12.179  1.00  0.00    +0.000 N 
ATOM     20  C15 UNL A   1      13.593  48.230  11.011  1.00  0.00    +0.000 C 
ATOM     21  N4  UNL A   1      13.025  47.431  10.124  1.00  0.00    +0.000 N 
ATOM     22  C16 UNL A   1      11.850  46.964  10.510  1.00  0.00    +0.000 C 
ATOM     23 Cl1  UNL A   1      11.061  45.920   9.410  1.00  0.00    +0.000 Cl
ATOM     24  N5  UNL A   1      11.203  47.226  11.630  1.00  0.00    +0.000 N 
ATOM     25  C17 UNL A   1      11.843  48.055  12.437  1.00  0.00    +0.000 C 
BRANCH   25   26
ATOM     26  N6  UNL A   1      11.241  48.531  13.608  1.00  0.00    +0.000 N 
ATOM    123  H20 UNL A   1      11.283  49.500  13.777  1.00  0.00    +0.000 H 
BRANCH   26   27
ATOM    132  H29 UNL A   1      11.112  45.153  16.637  1.00  0.00    +0.000 H 
ATOM    133  H30 UNL A   1      12.254  46.534  15.014  1.00  0.00    +0.000 H 
ATOM     38  C26 UNL A   1      10.588  45.886  16.131  1.00  0.00    +0.000 C 
ATOM     39  C27 UNL A   1      11.255  46.702  15.213  1.00  0.00    +0.000 C 
ATOM    124  H21 UNL A   1       8.705  48.662  14.319  1.00  0.00    +0.000 H 
ATOM    125  H22 UNL A   1       7.525  47.187  15.836  1.00  0.00    +0.000 H 
ATOM     27  C18 UNL A   1      10.585  47.738  14.561  1.00  0.00    +0.000 C 
ATOM     28  C19 UNL A   1       9.218  47.907  14.801  1.00  0.00    +0.000 C 
ATOM     29  C20 UNL A   1       8.539  47.064  15.687  1.00  0.00    +0.000 C 
ATOM     30  C21 UNL A   1       9.222  46.052  16.375  1.00  0.00    +0.000 C 
BRANCH   30   31
ATOM     33  C23 UNL A   1       7.162  43.140  17.670  1.00  0.00    +0.000 C 
ATOM    129  H26 UNL A   1       6.243  43.685  17.743  1.00  0.00    +0.000 H 
ATOM     35  C24 UNL A   1       7.943  44.303  19.529  1.00  0.00    +0.000 C 
ATOM     36  C25 UNL A   1       8.595  45.396  18.662  1.00  0.00    +0.000 C 
ATOM     37  O4  UNL A   1       9.036  46.414  19.200  1.00  0.00    +0.000 O 
ATOM     34  O3  UNL A   1       7.749  43.019  18.962  1.00  0.00    +0.000 O 
ATOM    130  H27 UNL A   1       8.558  44.178  20.395  1.00  0.00    +0.000 H 
ATOM    131  H28 UNL A   1       6.951  44.665  19.705  1.00  0.00    +0.000 H 
ATOM    127  H24 UNL A   1       7.620  44.044  15.823  1.00  0.00    +0.000 H 
ATOM    128  H25 UNL A   1       6.964  42.166  17.274  1.00  0.00    +0.000 H 
ATOM    126  H23 UNL A   1       9.004  43.283  16.628  1.00  0.00    +0.000 H 
ATOM     31  N7  UNL A   1       8.522  45.194  17.276  1.00  0.00    +0.000 N 
ATOM     32  C22 UNL A   1       8.126  43.880  16.751  1.00  0.00    +0.000 C 
ENDBRANCH   30   31
ENDBRANCH   26   27
ENDBRANCH   25   26
ENDBRANCH   19   20
ENDBRANCH   18   19
ENDBRANCH   11   13
ENDBRANCH   10   11
ENDBRANCH    9   10
ENDBRANCH    8    9
ENDBRANCH    7    8
ENDBRANCH    6    7
ENDBRANCH    5    6
ENDBRANCH    4    5
ENDBRANCH    3    4
ENDBRANCH    2    3
ENDBRANCH   41    2
ENDBRANCH   45   44
BRANCH   49   50
ATOM     50  C36 UNL A   1      12.460  47.881   4.587  1.00  0.00    +0.000 C 
ATOM     51  C37 UNL A   1      13.004  47.057   5.585  1.00  0.00    +0.000 C 
ATOM     52  F1  UNL A   1      14.273  47.226   5.982  1.00  0.00    +0.000 F 
ATOM     53  C38 UNL A   1      12.249  46.037   6.161  1.00  0.00    +0.000 C 
ATOM     54  F2  UNL A   1      12.800  45.242   7.089  1.00  0.00    +0.000 F 
ATOM     55  C39 UNL A   1      10.933  45.840   5.775  1.00  0.00    +0.000 C 
ATOM     56  F3  UNL A   1      10.205  44.866   6.339  1.00  0.00    +0.000 F 
ATOM     57  C40 UNL A   1      10.371  46.650   4.800  1.00  0.00    +0.000 C 
ATOM     58  F4  UNL A   1       9.094  46.470   4.434  1.00  0.00    +0.000 F 
ATOM     59  C41 UNL A   1      11.129  47.654   4.204  1.00  0.00    +0.000 C 
ATOM     60  F5  UNL A   1      10.559  48.419   3.261  1.00  0.00    +0.000 F 
ENDBRANCH   49   50
BRANCH   66   67
ATOM     67  C47 UNL A   1      16.907  48.963  -0.984  1.00  0.00    +0.000 C 
ATOM     68  C48 UNL A   1      16.277  48.916  -2.237  1.00  0.00    +0.000 C 
ATOM     69  F6  UNL A   1      15.112  49.554  -2.430  1.00  0.00    +0.000 F 
ATOM     70  C49 UNL A   1      16.820  48.174  -3.282  1.00  0.00    +0.000 C 
ATOM     71  F7  UNL A   1      16.174  48.102  -4.455  1.00  0.00    +0.000 F 
ATOM     72  C50 UNL A   1      18.016  47.495  -3.106  1.00  0.00    +0.000 C 
ATOM     73  F8  UNL A   1      18.537  46.782  -4.114  1.00  0.00    +0.000 F 
ATOM     74  C51 UNL A   1      18.666  47.544  -1.882  1.00  0.00    +0.000 C 
ATOM     75  F9  UNL A   1      19.826  46.896  -1.713  1.00  0.00    +0.000 F 
ATOM     76  C52 UNL A   1      18.113  48.263  -0.826  1.00  0.00    +0.000 C 
ATOM     77  F10 UNL A   1      18.754  48.279   0.352  1.00  0.00    +0.000 F 
ENDBRANCH   66   67
BRANCH   81   82
ATOM     82  C56 UNL A   1      17.706  55.588   1.002  1.00  0.00    +0.000 C 
ATOM     83  C57 UNL A   1      17.173  56.455   0.039  1.00  0.00    +0.000 C 
ATOM     84  F11 UNL A   1      15.944  56.236  -0.452  1.00  0.00    +0.000 F 
ATOM     85  C58 UNL A   1      17.911  57.532  -0.446  1.00  0.00    +0.000 C 
ATOM     86  F12 UNL A   1      17.393  58.325  -1.393  1.00  0.00    +0.000 F 
ATOM     87  C59 UNL A   1      19.186  57.779   0.044  1.00  0.00    +0.000 C 
ATOM     88  F13 UNL A   1      19.891  58.822  -0.415  1.00  0.00    +0.000 F 
ATOM     89  C60 UNL A   1      19.729  56.942   1.006  1.00  0.00    +0.000 C 
ATOM     90  F14 UNL A   1      20.953  57.187   1.495  1.00  0.00    +0.000 F 
ATOM     91  C61 UNL A   1      19.003  55.848   1.469  1.00  0.00    +0.000 C 
ATOM     92  F15 UNL A   1      19.555  55.050   2.395  1.00  0.00    +0.000 F 
ENDBRANCH   81   82
TORSDOF 20
ENDMDL
MODEL 9
REMARK VINA RESULT:      -8.6     44.006     47.479
ROOT
ATOM    136  H33 UNL A   1      23.092  45.993  50.256  1.00  0.00    +0.000 H 
ATOM    137  H34 UNL A   1      20.863  44.745  50.778  1.00  0.00    +0.000 H 
ATOM    138  H35 UNL A   1      23.330  42.175  48.667  1.00  0.00    +0.000 H 
ATOM    139  H36 UNL A   1      24.238  36.576  45.759  1.00  0.00    +0.000 H 
ATOM    140  H37 UNL A   1      26.483  37.717  45.431  1.00  0.00    +0.000 H 
ATOM    141  H38 UNL A   1      24.025  40.336  47.523  1.00  0.00    +0.000 H 
ATOM    142  H39 UNL A   1      19.768  37.811  48.392  1.00  0.00    +0.000 H 
ATOM    143  H40 UNL A   1      18.901  39.931  49.537  1.00  0.00    +0.000 H 
ATOM    144  H41 UNL A   1      27.695  44.533  47.898  1.00  0.00    +0.000 H 
ATOM    145  H42 UNL A   1      28.482  42.528  46.512  1.00  0.00    +0.000 H 
ATOM     45  C32 UNL A   1      26.610  40.374  46.443  1.00  0.00    +0.000 C 
ATOM     46  C33 UNL A   1      26.446  41.716  47.096  1.00  0.00    +0.000 C 
ATOM     47  N9  UNL A   1      25.420  42.191  47.760  1.00  0.00    +0.000 N 
ATOM     48  C34 UNL A   1      25.789  43.465  48.172  1.00  0.00    +0.000 C 
ATOM     49  C35 UNL A   1      25.058  44.368  48.868  1.00  0.00    +0.000 C 
ATOM     61  C42 UNL A   1      23.705  44.151  49.316  1.00  0.00    +0.000 C 
ATOM     62  C43 UNL A   1      22.868  45.021  49.993  1.00  0.00    +0.000 C 
ATOM     63  C44 UNL A   1      21.665  44.357  50.259  1.00  0.00    +0.000 C 
ATOM     64  C45 UNL A   1      21.735  43.088  49.706  1.00  0.00    +0.000 C 
ATOM     65  N10 UNL A   1      22.993  42.973  49.133  1.00  0.00    +0.000 N 
ATOM     66  C46 UNL A   1      20.730  42.056  49.704  1.00  0.00    +0.000 C 
ATOM     78  C53 UNL A   1      20.862  40.841  49.114  1.00  0.00    +0.000 C 
ATOM     79  N11 UNL A   1      21.942  40.325  48.416  1.00  0.00    +0.000 N 
ATOM     80  C54 UNL A   1      21.596  39.111  48.066  1.00  0.00    +0.000 C 
ATOM     81  C55 UNL A   1      22.375  38.095  47.283  1.00  0.00    +0.000 C 
ATOM     93  C62 UNL A   1      23.616  38.402  46.864  1.00  0.00    +0.000 C 
ATOM     94  C63 UNL A   1      24.488  37.518  46.100  1.00  0.00    +0.000 C 
ATOM     95  C64 UNL A   1      25.667  38.128  45.911  1.00  0.00    +0.000 C 
ATOM     96  C65 UNL A   1      25.612  39.470  46.494  1.00  0.00    +0.000 C 
ATOM     97  N12 UNL A   1      24.359  39.542  47.045  1.00  0.00    +0.000 N 
ATOM     98  C66 UNL A   1      20.256  38.713  48.515  1.00  0.00    +0.000 C 
ATOM     99  C67 UNL A   1      19.837  39.816  49.117  1.00  0.00    +0.000 C 
ATOM    100  C68 UNL A   1      27.143  43.682  47.706  1.00  0.00    +0.000 C 
ATOM    101  C69 UNL A   1      27.581  42.648  47.000  1.00  0.00    +0.000 C 
ENDROOT
BRANCH   45   44
ATOM    102  C70 UNL A   1      28.168  40.603  44.479  1.00  0.00    +0.000 C 
ATOM    103  C71 UNL A   1      29.356  40.267  43.824  1.00  0.00    +0.000 C 
ATOM    134  H31 UNL A   1      30.685  38.271  46.168  1.00  0.00    +0.000 H 
ATOM     41  C28 UNL A   1      30.252  39.374  44.420  1.00  0.00    +0.000 C 
ATOM     42  C29 UNL A   1      29.982  38.855  45.689  1.00  0.00    +0.000 C 
ATOM     43  C30 UNL A   1      28.765  39.126  46.304  1.00  0.00    +0.000 C 
ATOM    135  H32 UNL A   1      28.530  38.672  47.200  1.00  0.00    +0.000 H 
ATOM     44  C31 UNL A   1      27.852  40.017  45.713  1.00  0.00    +0.000 C 
ATOM    146  H43 UNL A   1      27.521  41.285  44.053  1.00  0.00    +0.000 H 
ATOM    147  H44 UNL A   1      29.574  40.679  42.902  1.00  0.00    +0.000 H 
BRANCH   41    2
ATOM      1  O1  UNL A   1      32.473  39.735  43.759  1.00  0.00    +0.000 O 
ATOM      2  C1  UNL A   1      31.487  39.005  43.694  1.00  0.00    +0.000 C 
BRANCH    2    3
ATOM      3  N1  UNL A   1      31.520  37.864  42.930  1.00  0.00    +0.000 N 
ATOM    104  H1  UNL A   1      32.367  37.695  42.458  1.00  0.00    +0.000 H 
BRANCH    3    4
ATOM    105  H2  UNL A   1      30.303  36.781  41.668  1.00  0.00    +0.000 H 
ATOM    106  H3  UNL A   1      29.609  37.206  43.244  1.00  0.00    +0.000 H 
ATOM      4  C2  UNL A   1      30.480  36.872  42.720  1.00  0.00    +0.000 C 
BRANCH    4    5
ATOM    107  H4  UNL A   1      31.350  35.642  44.203  1.00  0.00    +0.000 H 
ATOM    108  H5  UNL A   1      31.445  35.031  42.520  1.00  0.00    +0.000 H 
ATOM      5  C3  UNL A   1      30.843  35.499  43.271  1.00  0.00    +0.000 C 
BRANCH    5    6
ATOM    110  H7  UNL A   1      29.749  33.792  42.768  1.00  0.00    +0.000 H 
ATOM    109  H6  UNL A   1      29.741  34.192  44.518  1.00  0.00    +0.000 H 
ATOM      6  C4  UNL A   1      29.668  34.555  43.514  1.00  0.00    +0.000 C 
BRANCH    6    7
ATOM    111  H8  UNL A   1      28.207  35.540  42.336  1.00  0.00    +0.000 H 
ATOM      7  C5  UNL A   1      28.272  35.161  43.335  1.00  0.00    +0.000 C 
ATOM    112  H9  UNL A   1      28.186  35.908  44.097  1.00  0.00    +0.000 H 
BRANCH    7    8
ATOM    113  H10 UNL A   1      27.371  33.502  44.303  1.00  0.00    +0.000 H 
ATOM    114  H11 UNL A   1      26.882  33.779  42.597  1.00  0.00    +0.000 H 
ATOM      8  C6  UNL A   1      27.088  34.213  43.554  1.00  0.00    +0.000 C 
BRANCH    8    9
ATOM      9  C7  UNL A   1      25.785  34.870  44.001  1.00  0.00    +0.000 C 
ATOM    115  H12 UNL A   1      25.359  35.389  43.167  1.00  0.00    +0.000 H 
ATOM    116  H13 UNL A   1      26.016  35.538  44.804  1.00  0.00    +0.000 H 
BRANCH    9   10
ATOM     10  N2  UNL A   1      24.816  33.907  44.494  1.00  0.00    +0.000 N 
ATOM    117  H14 UNL A   1      24.140  33.611  43.843  1.00  0.00    +0.000 H 
BRANCH   10   11
ATOM     11  C8  UNL A   1      24.718  33.355  45.746  1.00  0.00    +0.000 C 
ATOM     12  O2  UNL A   1      24.883  34.053  46.744  1.00  0.00    +0.000 O 
BRANCH   11   13
ATOM     13  C9  UNL A   1      24.374  31.927  45.913  1.00  0.00    +0.000 C 
ATOM     14  C10 UNL A   1      23.012  31.599  45.855  1.00  0.00    +0.000 C 
ATOM     15  C11 UNL A   1      22.609  30.274  46.001  1.00  0.00    +0.000 C 
ATOM     16  C12 UNL A   1      23.563  29.280  46.197  1.00  0.00    +0.000 C 
ATOM     17  C13 UNL A   1      24.920  29.611  46.272  1.00  0.00    +0.000 C 
ATOM     18  C14 UNL A   1      25.352  30.943  46.161  1.00  0.00    +0.000 C 
ATOM    118  H15 UNL A   1      22.309  32.338  45.705  1.00  0.00    +0.000 H 
ATOM    119  H16 UNL A   1      21.607  30.031  45.964  1.00  0.00    +0.000 H 
ATOM    120  H17 UNL A   1      23.268  28.295  46.289  1.00  0.00    +0.000 H 
ATOM    121  H18 UNL A   1      25.617  28.862  46.411  1.00  0.00    +0.000 H 
BRANCH   18   19
ATOM    122  H19 UNL A   1      27.207  31.487  45.501  1.00  0.00    +0.000 H 
ATOM     19  N3  UNL A   1      26.708  31.298  46.328  1.00  0.00    +0.000 N 
BRANCH   19   20
ATOM     40  N8  UNL A   1      27.743  32.656  47.878  1.00  0.00    +0.000 N 
ATOM     20  C15 UNL A   1      27.430  31.418  47.514  1.00  0.00    +0.000 C 
ATOM     21  N4  UNL A   1      27.782  30.335  48.186  1.00  0.00    +0.000 N 
ATOM     22  C16 UNL A   1      28.496  30.593  49.268  1.00  0.00    +0.000 C 
ATOM     23 Cl1  UNL A   1      28.987  29.236  50.182  1.00  0.00    +0.000 Cl
ATOM     24  N5  UNL A   1      28.851  31.774  49.740  1.00  0.00    +0.000 N 
ATOM     25  C17 UNL A   1      28.429  32.792  49.010  1.00  0.00    +0.000 C 
BRANCH   25   26
ATOM     26  N6  UNL A   1      28.615  34.112  49.437  1.00  0.00    +0.000 N 
ATOM    123  H20 UNL A   1      29.542  34.429  49.537  1.00  0.00    +0.000 H 
BRANCH   26   27
ATOM    132  H29 UNL A   1      25.896  37.601  48.418  1.00  0.00    +0.000 H 
ATOM    133  H30 UNL A   1      27.650  36.023  47.886  1.00  0.00    +0.000 H 
ATOM     38  C26 UNL A   1      26.203  36.918  49.130  1.00  0.00    +0.000 C 
ATOM     39  C27 UNL A   1      27.198  35.989  48.813  1.00  0.00    +0.000 C 
ATOM    124  H21 UNL A   1      27.289  34.327  51.707  1.00  0.00    +0.000 H 
ATOM    125  H22 UNL A   1      25.635  35.998  52.291  1.00  0.00    +0.000 H 
ATOM     27  C18 UNL A   1      27.588  35.019  49.737  1.00  0.00    +0.000 C 
ATOM     28  C19 UNL A   1      27.005  35.031  51.009  1.00  0.00    +0.000 C 
ATOM     29  C20 UNL A   1      26.040  35.988  51.342  1.00  0.00    +0.000 C 
ATOM     30  C21 UNL A   1      25.617  36.934  50.399  1.00  0.00    +0.000 C 
BRANCH   30   31
ATOM     33  C23 UNL A   1      22.367  38.455  51.636  1.00  0.00    +0.000 C 
ATOM    129  H26 UNL A   1      21.961  38.639  50.662  1.00  0.00    +0.000 H 
ATOM     35  C24 UNL A   1      23.856  40.211  51.293  1.00  0.00    +0.000 C 
ATOM     36  C25 UNL A   1      24.942  39.277  50.731  1.00  0.00    +0.000 C 
ATOM     37  O4  UNL A   1      25.948  39.762  50.208  1.00  0.00    +0.000 O 
ATOM     34  O3  UNL A   1      22.887  39.666  52.173  1.00  0.00    +0.000 O 
ATOM    130  H27 UNL A   1      24.356  40.996  51.820  1.00  0.00    +0.000 H 
ATOM    131  H28 UNL A   1      23.292  40.506  50.433  1.00  0.00    +0.000 H 
ATOM    127  H24 UNL A   1      23.095  36.569  51.038  1.00  0.00    +0.000 H 
ATOM    128  H25 UNL A   1      21.595  38.081  52.276  1.00  0.00    +0.000 H 
ATOM    126  H23 UNL A   1      23.829  37.199  52.524  1.00  0.00    +0.000 H 
ATOM     31  N7  UNL A   1      24.634  37.908  50.747  1.00  0.00    +0.000 N 
ATOM     32  C22 UNL A   1      23.490  37.430  51.536  1.00  0.00    +0.000 C 
ENDBRANCH   30   31
ENDBRANCH   26   27
ENDBRANCH   25   26
ENDBRANCH   19   20
ENDBRANCH   18   19
ENDBRANCH   11   13
ENDBRANCH   10   11
ENDBRANCH    9   10
ENDBRANCH    8    9
ENDBRANCH    7    8
ENDBRANCH    6    7
ENDBRANCH    5    6
ENDBRANCH    4    5
ENDBRANCH    3    4
ENDBRANCH    2    3
ENDBRANCH   41    2
ENDBRANCH   45   44
BRANCH   49   50
ATOM     50  C36 UNL A   1      25.706  45.680  49.206  1.00  0.00    +0.000 C 
ATOM     51  C37 UNL A   1      26.403  45.869  50.408  1.00  0.00    +0.000 C 
ATOM     52  F1  UNL A   1      26.451  44.888  51.322  1.00  0.00    +0.000 F 
ATOM     53  C38 UNL A   1      27.035  47.080  50.688  1.00  0.00    +0.000 C 
ATOM     54  F2  UNL A   1      27.667  47.248  51.858  1.00  0.00    +0.000 F 
ATOM     55  C39 UNL A   1      27.006  48.111  49.762  1.00  0.00    +0.000 C 
ATOM     56  F3  UNL A   1      27.624  49.270  50.027  1.00  0.00    +0.000 F 
ATOM     57  C40 UNL A   1      26.334  47.942  48.562  1.00  0.00    +0.000 C 
ATOM     58  F4  UNL A   1      26.317  48.932  47.658  1.00  0.00    +0.000 F 
ATOM     59  C41 UNL A   1      25.681  46.743  48.289  1.00  0.00    +0.000 C 
ATOM     60  F5  UNL A   1      25.035  46.611  47.121  1.00  0.00    +0.000 F 
ENDBRANCH   49   50
BRANCH   66   67
ATOM     67  C47 UNL A   1      19.425  42.342  50.385  1.00  0.00    +0.000 C 
ATOM     68  C48 UNL A   1      19.212  42.010  51.731  1.00  0.00    +0.000 C 
ATOM     69  F6  UNL A   1      20.172  41.388  52.432  1.00  0.00    +0.000 F 
ATOM     70  C49 UNL A   1      17.993  42.277  52.348  1.00  0.00    +0.000 C 
ATOM     71  F7  UNL A   1      17.794  41.906  53.621  1.00  0.00    +0.000 F 
ATOM     72  C50 UNL A   1      16.979  42.907  51.642  1.00  0.00    +0.000 C 
ATOM     73  F8  UNL A   1      15.807  43.163  52.239  1.00  0.00    +0.000 F 
ATOM     74  C51 UNL A   1      17.175  43.261  50.317  1.00  0.00    +0.000 C 
ATOM     75  F9  UNL A   1      16.199  43.879  49.637  1.00  0.00    +0.000 F 
ATOM     76  C52 UNL A   1      18.383  42.973  49.688  1.00  0.00    +0.000 C 
ATOM     77  F10 UNL A   1      18.539  43.312  48.400  1.00  0.00    +0.000 F 
ENDBRANCH   66   67
BRANCH   81   82
ATOM     82  C56 UNL A   1      21.801  36.764  46.962  1.00  0.00    +0.000 C 
ATOM     83  C57 UNL A   1      21.985  35.673  47.822  1.00  0.00    +0.000 C 
ATOM     84  F11 UNL A   1      22.720  35.815  48.936  1.00  0.00    +0.000 F 
ATOM     85  C58 UNL A   1      21.441  34.425  47.527  1.00  0.00    +0.000 C 
ATOM     86  F12 UNL A   1      21.661  33.389  48.347  1.00  0.00    +0.000 F 
ATOM     87  C59 UNL A   1      20.678  34.252  46.380  1.00  0.00    +0.000 C 
ATOM     88  F13 UNL A   1      20.146  33.054  46.103  1.00  0.00    +0.000 F 
ATOM     89  C60 UNL A   1      20.473  35.320  45.521  1.00  0.00    +0.000 C 
ATOM     90  F14 UNL A   1      19.723  35.162  44.421  1.00  0.00    +0.000 F 
ATOM     91  C61 UNL A   1      21.042  36.560  45.800  1.00  0.00    +0.000 C 
ATOM     92  F15 UNL A   1      20.833  37.575  44.948  1.00  0.00    +0.000 F 
ENDBRANCH   81   82
TORSDOF 20
ENDMDL
MODEL 10
REMARK VINA RESULT:      -8.5      2.681      4.337
ROOT
ATOM    136  H33 UNL A   1      17.819  50.985  -2.495  1.00  0.00    +0.000 H 
ATOM    137  H34 UNL A   1      18.260  53.545  -2.269  1.00  0.00    +0.000 H 
ATOM    138  H35 UNL A   1      16.275  52.262   1.130  1.00  0.00    +0.000 H 
ATOM    139  H36 UNL A   1      13.455  53.603   6.688  1.00  0.00    +0.000 H 
ATOM    140  H37 UNL A   1      13.209  51.079   6.562  1.00  0.00    +0.000 H 
ATOM    141  H38 UNL A   1      15.176  52.334   3.121  1.00  0.00    +0.000 H 
ATOM    142  H39 UNL A   1      15.892  57.275   3.685  1.00  0.00    +0.000 H 
ATOM    143  H40 UNL A   1      16.982  57.247   1.369  1.00  0.00    +0.000 H 
ATOM    144  H41 UNL A   1      15.664  47.292   0.760  1.00  0.00    +0.000 H 
ATOM    145  H42 UNL A   1      14.329  47.340   2.946  1.00  0.00    +0.000 H 
ATOM     45  C32 UNL A   1      14.203  49.920   4.158  1.00  0.00    +0.000 C 
ATOM     46  C33 UNL A   1      14.836  49.548   2.850  1.00  0.00    +0.000 C 
ATOM     47  N9  UNL A   1      15.453  50.315   1.985  1.00  0.00    +0.000 N 
ATOM     48  C34 UNL A   1      15.869  49.476   0.959  1.00  0.00    +0.000 C 
ATOM     49  C35 UNL A   1      16.527  49.801  -0.180  1.00  0.00    +0.000 C 
ATOM     61  C42 UNL A   1      16.921  51.140  -0.539  1.00  0.00    +0.000 C 
ATOM     62  C43 UNL A   1      17.555  51.575  -1.690  1.00  0.00    +0.000 C 
ATOM     63  C44 UNL A   1      17.777  52.952  -1.576  1.00  0.00    +0.000 C 
ATOM     64  C45 UNL A   1      17.240  53.384  -0.375  1.00  0.00    +0.000 C 
ATOM     65  N10 UNL A   1      16.719  52.262   0.253  1.00  0.00    +0.000 N 
ATOM     66  C46 UNL A   1      17.205  54.720   0.162  1.00  0.00    +0.000 C 
ATOM     78  C53 UNL A   1      16.632  55.073   1.340  1.00  0.00    +0.000 C 
ATOM     79  N11 UNL A   1      15.983  54.271   2.266  1.00  0.00    +0.000 N 
ATOM     80  C54 UNL A   1      15.629  55.068   3.245  1.00  0.00    +0.000 C 
ATOM     81  C55 UNL A   1      14.888  54.742   4.508  1.00  0.00    +0.000 C 
ATOM     93  C62 UNL A   1      14.518  53.469   4.739  1.00  0.00    +0.000 C 
ATOM     94  C63 UNL A   1      13.797  53.005   5.920  1.00  0.00    +0.000 C 
ATOM     95  C64 UNL A   1      13.652  51.675   5.844  1.00  0.00    +0.000 C 
ATOM     96  C65 UNL A   1      14.220  51.200   4.580  1.00  0.00    +0.000 C 
ATOM     97  N12 UNL A   1      14.719  52.334   3.994  1.00  0.00    +0.000 N 
ATOM     98  C66 UNL A   1      16.027  56.468   3.055  1.00  0.00    +0.000 C 
ATOM     99  C67 UNL A   1      16.602  56.424   1.862  1.00  0.00    +0.000 C 
ATOM    100  C68 UNL A   1      15.457  48.136   1.320  1.00  0.00    +0.000 C 
ATOM    101  C69 UNL A   1      14.779  48.131   2.460  1.00  0.00    +0.000 C 
ENDROOT
BRANCH   45   44
ATOM    102  C70 UNL A   1      14.250  48.094   5.891  1.00  0.00    +0.000 C 
ATOM    103  C71 UNL A   1      13.586  47.164   6.696  1.00  0.00    +0.000 C 
ATOM    134  H31 UNL A   1      10.430  47.934   5.868  1.00  0.00    +0.000 H 
ATOM     41  C28 UNL A   1      12.191  47.071   6.649  1.00  0.00    +0.000 C 
ATOM     42  C29 UNL A   1      11.461  47.938   5.833  1.00  0.00    +0.000 C 
ATOM     43  C30 UNL A   1      12.125  48.807   4.974  1.00  0.00    +0.000 C 
ATOM    135  H32 UNL A   1      11.586  49.384   4.310  1.00  0.00    +0.000 H 
ATOM     44  C31 UNL A   1      13.526  48.906   5.006  1.00  0.00    +0.000 C 
ATOM    146  H43 UNL A   1      15.277  48.183   5.948  1.00  0.00    +0.000 H 
ATOM    147  H44 UNL A   1      14.124  46.548   7.326  1.00  0.00    +0.000 H 
BRANCH   41    2
ATOM      1  O1  UNL A   1      10.416  45.620   7.138  1.00  0.00    +0.000 O 
ATOM      2  C1  UNL A   1      11.511  46.056   7.483  1.00  0.00    +0.000 C 
BRANCH    2    3
ATOM      3  N1  UNL A   1      12.091  45.626   8.651  1.00  0.00    +0.000 N 
ATOM    104  H1  UNL A   1      12.901  45.076   8.544  1.00  0.00    +0.000 H 
BRANCH    3    4
ATOM    105  H2  UNL A   1      12.510  45.672  10.668  1.00  0.00    +0.000 H 
ATOM    106  H3  UNL A   1      10.852  45.221  10.227  1.00  0.00    +0.000 H 
ATOM      4  C2  UNL A   1      11.679  45.869  10.023  1.00  0.00    +0.000 C 
BRANCH    4    5
ATOM    107  H4  UNL A   1      10.364  47.259  10.921  1.00  0.00    +0.000 H 
ATOM    108  H5  UNL A   1      10.980  47.696   9.295  1.00  0.00    +0.000 H 
ATOM      5  C3  UNL A   1      11.207  47.297  10.262  1.00  0.00    +0.000 C 
BRANCH    5    6
ATOM    110  H7  UNL A   1      11.705  49.128  11.135  1.00  0.00    +0.000 H 
ATOM    109  H6  UNL A   1      12.690  47.739  11.704  1.00  0.00    +0.000 H 
ATOM      6  C4  UNL A   1      12.241  48.240  10.872  1.00  0.00    +0.000 C 
BRANCH    6    7
ATOM    111  H8  UNL A   1      13.498  49.749  10.076  1.00  0.00    +0.000 H 
ATOM      7  C5  UNL A   1      13.366  48.696   9.938  1.00  0.00    +0.000 C 
ATOM    112  H9  UNL A   1      13.052  48.416   8.954  1.00  0.00    +0.000 H 
BRANCH    7    8
ATOM    113  H10 UNL A   1      14.927  47.419   9.279  1.00  0.00    +0.000 H 
ATOM    114  H11 UNL A   1      14.648  47.470  11.052  1.00  0.00    +0.000 H 
ATOM      8  C6  UNL A   1      14.729  48.024  10.139  1.00  0.00    +0.000 C 
BRANCH    8    9
ATOM      9  C7  UNL A   1      15.913  48.968  10.331  1.00  0.00    +0.000 C 
ATOM    115  H12 UNL A   1      16.703  48.664   9.677  1.00  0.00    +0.000 H 
ATOM    116  H13 UNL A   1      16.208  48.915  11.357  1.00  0.00    +0.000 H 
BRANCH    9   10
ATOM     10  N2  UNL A   1      15.575  50.351  10.041  1.00  0.00    +0.000 N 
ATOM    117  H14 UNL A   1      15.183  50.517   9.153  1.00  0.00    +0.000 H 
BRANCH   10   11
ATOM     11  C8  UNL A   1      15.730  51.456  10.839  1.00  0.00    +0.000 C 
ATOM     12  O2  UNL A   1      16.681  51.532  11.613  1.00  0.00    +0.000 O 
BRANCH   11   13
ATOM     13  C9  UNL A   1      14.778  52.584  10.752  1.00  0.00    +0.000 C 
ATOM     14  C10 UNL A   1      14.681  53.228   9.510  1.00  0.00    +0.000 C 
ATOM     15  C11 UNL A   1      13.805  54.299   9.348  1.00  0.00    +0.000 C 
ATOM     16  C12 UNL A   1      13.025  54.720  10.420  1.00  0.00    +0.000 C 
ATOM     17  C13 UNL A   1      13.136  54.088  11.663  1.00  0.00    +0.000 C 
ATOM     18  C14 UNL A   1      14.034  53.028  11.864  1.00  0.00    +0.000 C 
ATOM    118  H15 UNL A   1      15.258  52.909   8.716  1.00  0.00    +0.000 H 
ATOM    119  H16 UNL A   1      13.735  54.776   8.436  1.00  0.00    +0.000 H 
ATOM    120  H17 UNL A   1      12.363  55.503  10.298  1.00  0.00    +0.000 H 
ATOM    121  H18 UNL A   1      12.546  54.408  12.448  1.00  0.00    +0.000 H 
BRANCH   18   19
ATOM    122  H19 UNL A   1      15.101  52.598  13.552  1.00  0.00    +0.000 H 
ATOM     19  N3  UNL A   1      14.222  52.446  13.136  1.00  0.00    +0.000 N 
BRANCH   19   20
ATOM     40  N8  UNL A   1      13.424  50.369  13.742  1.00  0.00    +0.000 N 
ATOM     20  C15 UNL A   1      13.321  51.686  13.879  1.00  0.00    +0.000 C 
ATOM     21  N4  UNL A   1      12.420  52.285  14.639  1.00  0.00    +0.000 N 
ATOM     22  C16 UNL A   1      11.606  51.445  15.255  1.00  0.00    +0.000 C 
ATOM     23 Cl1  UNL A   1      10.413  52.154  16.252  1.00  0.00    +0.000 Cl
ATOM     24  N5  UNL A   1      11.621  50.126  15.213  1.00  0.00    +0.000 N 
ATOM     25  C17 UNL A   1      12.575  49.625  14.446  1.00  0.00    +0.000 C 
BRANCH   25   26
ATOM     26  N6  UNL A   1      12.806  48.246  14.390  1.00  0.00    +0.000 N 
ATOM    123  H20 UNL A   1      13.627  47.942  13.941  1.00  0.00    +0.000 H 
BRANCH   26   27
ATOM    132  H29 UNL A   1      11.981  44.600  16.965  1.00  0.00    +0.000 H 
ATOM    133  H30 UNL A   1      13.440  46.311  16.076  1.00  0.00    +0.000 H 
ATOM     38  C26 UNL A   1      11.611  45.285  16.286  1.00  0.00    +0.000 C 
ATOM     39  C27 UNL A   1      12.448  46.289  15.792  1.00  0.00    +0.000 C 
ATOM    124  H21 UNL A   1      10.250  47.881  13.848  1.00  0.00    +0.000 H 
ATOM    125  H22 UNL A   1       8.824  46.083  14.625  1.00  0.00    +0.000 H 
ATOM     27  C18 UNL A   1      11.958  47.261  14.919  1.00  0.00    +0.000 C 
ATOM     28  C19 UNL A   1      10.626  47.176  14.501  1.00  0.00    +0.000 C 
ATOM     29  C20 UNL A   1       9.798  46.145  14.960  1.00  0.00    +0.000 C 
ATOM     30  C21 UNL A   1      10.279  45.196  15.871  1.00  0.00    +0.000 C 
BRANCH   30   31
ATOM     33  C23 UNL A   1       8.317  41.949  15.937  1.00  0.00    +0.000 C 
ATOM    129  H26 UNL A   1       7.367  42.396  15.727  1.00  0.00    +0.000 H 
ATOM     35  C24 UNL A   1       8.213  42.851  18.080  1.00  0.00    +0.000 C 
ATOM     36  C25 UNL A   1       8.974  44.122  17.660  1.00  0.00    +0.000 C 
ATOM     37  O4  UNL A   1       9.049  45.071  18.444  1.00  0.00    +0.000 O 
ATOM     34  O3  UNL A   1       8.414  41.666  17.329  1.00  0.00    +0.000 O 
ATOM    130  H27 UNL A   1       8.490  42.636  19.090  1.00  0.00    +0.000 H 
ATOM    131  H28 UNL A   1       7.185  43.095  17.916  1.00  0.00    +0.000 H 
ATOM    127  H24 UNL A   1       9.275  43.180  14.520  1.00  0.00    +0.000 H 
ATOM    128  H25 UNL A   1       8.410  41.040  15.379  1.00  0.00    +0.000 H 
ATOM    126  H23 UNL A   1      10.371  42.414  15.684  1.00  0.00    +0.000 H 
ATOM     31  N7  UNL A   1       9.430  44.146  16.333  1.00  0.00    +0.000 N 
ATOM     32  C22 UNL A   1       9.432  42.907  15.542  1.00  0.00    +0.000 C 
ENDBRANCH   30   31
ENDBRANCH   26   27
ENDBRANCH   25   26
ENDBRANCH   19   20
ENDBRANCH   18   19
ENDBRANCH   11   13
ENDBRANCH   10   11
ENDBRANCH    9   10
ENDBRANCH    8    9
ENDBRANCH    7    8
ENDBRANCH    6    7
ENDBRANCH    5    6
ENDBRANCH    4    5
ENDBRANCH    3    4
ENDBRANCH    2    3
ENDBRANCH   41    2
ENDBRANCH   45   44
BRANCH   49   50
ATOM     50  C36 UNL A   1      16.879  48.689  -1.125  1.00  0.00    +0.000 C 
ATOM     51  C37 UNL A   1      17.989  47.859  -0.905  1.00  0.00    +0.000 C 
ATOM     52  F1  UNL A   1      18.806  48.086   0.134  1.00  0.00    +0.000 F 
ATOM     53  C38 UNL A   1      18.278  46.805  -1.769  1.00  0.00    +0.000 C 
ATOM     54  F2  UNL A   1      19.362  46.045  -1.557  1.00  0.00    +0.000 F 
ATOM     55  C39 UNL A   1      17.450  46.542  -2.850  1.00  0.00    +0.000 C 
ATOM     56  F3  UNL A   1      17.723  45.520  -3.673  1.00  0.00    +0.000 F 
ATOM     57  C40 UNL A   1      16.341  47.341  -3.079  1.00  0.00    +0.000 C 
ATOM     58  F4  UNL A   1      15.531  47.081  -4.116  1.00  0.00    +0.000 F 
ATOM     59  C41 UNL A   1      16.063  48.411  -2.232  1.00  0.00    +0.000 C 
ATOM     60  F5  UNL A   1      14.985  49.169  -2.483  1.00  0.00    +0.000 F 
ENDBRANCH   49   50
BRANCH   66   67
ATOM     67  C47 UNL A   1      17.829  55.820  -0.644  1.00  0.00    +0.000 C 
ATOM     68  C48 UNL A   1      17.086  56.560  -1.575  1.00  0.00    +0.000 C 
ATOM     69  F6  UNL A   1      15.793  56.269  -1.790  1.00  0.00    +0.000 F 
ATOM     70  C49 UNL A   1      17.680  57.574  -2.320  1.00  0.00    +0.000 C 
ATOM     71  F7  UNL A   1      16.963  58.235  -3.240  1.00  0.00    +0.000 F 
ATOM     72  C50 UNL A   1      19.017  57.888  -2.126  1.00  0.00    +0.000 C 
ATOM     73  F8  UNL A   1      19.587  58.865  -2.845  1.00  0.00    +0.000 F 
ATOM     74  C51 UNL A   1      19.766  57.182  -1.198  1.00  0.00    +0.000 C 
ATOM     75  F9  UNL A   1      21.056  57.490  -1.003  1.00  0.00    +0.000 F 
ATOM     76  C52 UNL A   1      19.182  56.150  -0.469  1.00  0.00    +0.000 C 
ATOM     77  F10 UNL A   1      19.935  55.472   0.411  1.00  0.00    +0.000 F 
ENDBRANCH   66   67
BRANCH   81   82
ATOM     82  C56 UNL A   1      14.555  55.794   5.501  1.00  0.00    +0.000 C 
ATOM     83  C57 UNL A   1      15.558  56.415   6.256  1.00  0.00    +0.000 C 
ATOM     84  F11 UNL A   1      16.837  56.033   6.115  1.00  0.00    +0.000 F 
ATOM     85  C58 UNL A   1      15.249  57.409   7.182  1.00  0.00    +0.000 C 
ATOM     86  F12 UNL A   1      16.222  57.961   7.920  1.00  0.00    +0.000 F 
ATOM     87  C59 UNL A   1      13.934  57.820   7.349  1.00  0.00    +0.000 C 
ATOM     88  F13 UNL A   1      13.639  58.784   8.232  1.00  0.00    +0.000 F 
ATOM     89  C60 UNL A   1      12.927  57.228   6.603  1.00  0.00    +0.000 C 
ATOM     90  F14 UNL A   1      11.658  57.634   6.748  1.00  0.00    +0.000 F 
ATOM     91  C61 UNL A   1      13.232  56.214   5.699  1.00  0.00    +0.000 C 
ATOM     92  F15 UNL A   1      12.237  55.654   4.995  1.00  0.00    +0.000 F 
ENDBRANCH   81   82
TORSDOF 20
ENDMDL
