MODEL 1
REMARK VINA RESULT:      -8.5      0.000      0.000
ROOT
ATOM    129  H31 UNL A   1      10.284  19.867  20.996  1.00  0.00    +0.000 H 
ATOM    130  H32 UNL A   1       6.227  22.662  20.024  1.00  0.00    +0.000 H 
ATOM    131  H33 UNL A   1       5.086  20.502  19.262  1.00  0.00    +0.000 H 
ATOM    132  H34 UNL A   1      13.603  15.379  20.708  1.00  0.00    +0.000 H 
ATOM    133  H35 UNL A   1      14.596  17.388  21.948  1.00  0.00    +0.000 H 
ATOM     36  C27 UNL A   1      12.923  19.700  21.912  1.00  0.00    +0.000 C 
ATOM     37  C28 UNL A   1      12.610  18.327  21.383  1.00  0.00    +0.000 C 
ATOM     38  N4  UNL A   1      11.520  17.894  20.801  1.00  0.00    +0.000 N 
ATOM     39  C29 UNL A   1      11.761  16.562  20.491  1.00  0.00    +0.000 C 
ATOM     40  C30 UNL A   1      10.911  15.654  19.956  1.00  0.00    +0.000 C 
ATOM     52  C37 UNL A   1       9.553  15.942  19.575  1.00  0.00    +0.000 C 
ATOM     53  C38 UNL A   1       8.604  15.083  19.049  1.00  0.00    +0.000 C 
ATOM     54  C39 UNL A   1       7.442  15.819  18.790  1.00  0.00    +0.000 C 
ATOM     55  C40 UNL A   1       7.648  17.123  19.210  1.00  0.00    +0.000 C 
ATOM     56  N5  UNL A   1       8.951  17.188  19.679  1.00  0.00    +0.000 N 
ATOM     57  C41 UNL A   1       6.725  18.228  19.186  1.00  0.00    +0.000 C 
ATOM     69  C48 UNL A   1       7.004  19.482  19.618  1.00  0.00    +0.000 C 
ATOM     70  N6  UNL A   1       8.180  19.979  20.163  1.00  0.00    +0.000 N 
ATOM     71  C49 UNL A   1       7.961  21.251  20.396  1.00  0.00    +0.000 C 
ATOM     72  C50 UNL A   1       8.873  22.277  21.015  1.00  0.00    +0.000 C 
ATOM     84  C57 UNL A   1      10.099  21.898  21.423  1.00  0.00    +0.000 C 
ATOM     85  C58 UNL A   1      11.088  22.768  22.050  1.00  0.00    +0.000 C 
ATOM     86  C59 UNL A   1      12.211  22.066  22.267  1.00  0.00    +0.000 C 
ATOM     87  C60 UNL A   1      12.006  20.683  21.834  1.00  0.00    +0.000 C 
ATOM     88  N7  UNL A   1      10.720  20.674  21.355  1.00  0.00    +0.000 N 
ATOM     89  C61 UNL A   1       6.625  21.710  19.993  1.00  0.00    +0.000 C 
ATOM     90  C62 UNL A   1       6.066  20.584  19.576  1.00  0.00    +0.000 C 
ATOM     91  C63 UNL A   1      13.122  16.274  20.885  1.00  0.00    +0.000 C 
ATOM     92  C64 UNL A   1      13.668  17.312  21.501  1.00  0.00    +0.000 C 
ATOM    124  H26 UNL A   1       8.729  14.073  18.879  1.00  0.00    +0.000 H 
ATOM    125  H27 UNL A   1       6.580  15.454  18.358  1.00  0.00    +0.000 H 
ATOM    126  H28 UNL A   1       9.385  17.997  20.034  1.00  0.00    +0.000 H 
ATOM    127  H29 UNL A   1      10.947  23.762  22.288  1.00  0.00    +0.000 H 
ATOM    128  H30 UNL A   1      13.082  22.443  22.675  1.00  0.00    +0.000 H 
ENDROOT
BRANCH   36   35
ATOM     33  C24 UNL A   1      16.582  20.660  22.206  1.00  0.00    +0.000 C 
ATOM     34  C25 UNL A   1      15.310  20.453  21.671  1.00  0.00    +0.000 C 
ATOM     35  C26 UNL A   1      14.261  19.994  22.485  1.00  0.00    +0.000 C 
ATOM    134  H36 UNL A   1      13.726  19.467  24.462  1.00  0.00    +0.000 H 
ATOM    135  H37 UNL A   1      15.875  20.042  25.425  1.00  0.00    +0.000 H 
ATOM    122  H24 UNL A   1      17.358  20.963  21.597  1.00  0.00    +0.000 H 
ATOM    123  H25 UNL A   1      15.138  20.638  20.670  1.00  0.00    +0.000 H 
ATOM     93  C65 UNL A   1      14.487  19.813  23.856  1.00  0.00    +0.000 C 
ATOM     94  C66 UNL A   1      15.735  20.097  24.405  1.00  0.00    +0.000 C 
ATOM     32  C23 UNL A   1      16.799  20.456  23.570  1.00  0.00    +0.000 C 
BRANCH   32   30
ATOM     30  C22 UNL A   1      18.158  20.652  24.115  1.00  0.00    +0.000 C 
ATOM     31  O4  UNL A   1      19.111  20.065  23.613  1.00  0.00    +0.000 O 
BRANCH   30   29
ATOM    121  H23 UNL A   1      18.741  22.373  24.961  1.00  0.00    +0.000 H 
ATOM     29  N3  UNL A   1      18.351  21.496  25.178  1.00  0.00    +0.000 N 
BRANCH   29   28
ATOM     28  C21 UNL A   1      18.055  21.268  26.585  1.00  0.00    +0.000 C 
ATOM    119  H21 UNL A   1      17.546  20.331  26.685  1.00  0.00    +0.000 H 
ATOM    120  H22 UNL A   1      18.980  21.261  27.123  1.00  0.00    +0.000 H 
BRANCH   28   27
ATOM     27  C20 UNL A   1      17.176  22.372  27.163  1.00  0.00    +0.000 C 
ATOM    117  H19 UNL A   1      17.448  22.517  28.187  1.00  0.00    +0.000 H 
ATOM    118  H20 UNL A   1      17.340  23.244  26.564  1.00  0.00    +0.000 H 
BRANCH   27   26
ATOM     26  C19 UNL A   1      15.676  22.070  27.102  1.00  0.00    +0.000 C 
ATOM    115  H17 UNL A   1      15.222  22.766  26.428  1.00  0.00    +0.000 H 
ATOM    116  H18 UNL A   1      15.586  21.052  26.782  1.00  0.00    +0.000 H 
BRANCH   26   25
ATOM     25  C18 UNL A   1      14.945  22.164  28.450  1.00  0.00    +0.000 C 
ATOM    114  H16 UNL A   1      15.684  22.433  29.175  1.00  0.00    +0.000 H 
ATOM    113  H15 UNL A   1      14.485  21.218  28.646  1.00  0.00    +0.000 H 
BRANCH   25   24
ATOM    112  H14 UNL A   1      13.844  23.746  27.569  1.00  0.00    +0.000 H 
ATOM    111  H13 UNL A   1      14.092  23.916  29.317  1.00  0.00    +0.000 H 
ATOM     24  C17 UNL A   1      13.858  23.247  28.515  1.00  0.00    +0.000 C 
BRANCH   24   23
ATOM    109  H11 UNL A   1      12.380  22.328  29.759  1.00  0.00    +0.000 H 
ATOM    110  H12 UNL A   1      11.733  23.446  28.574  1.00  0.00    +0.000 H 
ATOM     23  C16 UNL A   1      12.456  22.677  28.751  1.00  0.00    +0.000 C 
BRANCH   23   22
ATOM    108  H10 UNL A   1      12.369  20.697  28.253  1.00  0.00    +0.000 H 
ATOM     22  N2  UNL A   1      12.206  21.576  27.843  1.00  0.00    +0.000 N 
BRANCH   22   20
ATOM     20  C15 UNL A   1      11.793  21.489  26.534  1.00  0.00    +0.000 C 
ATOM     21  O3  UNL A   1      12.345  22.267  25.750  1.00  0.00    +0.000 O 
BRANCH   20   19
ATOM    136  H38 UNL A   1       9.404  17.757  27.051  1.00  0.00    +0.000 H 
ATOM    106  H8  UNL A   1       8.625  19.847  23.537  1.00  0.00    +0.000 H 
ATOM    107  H9  UNL A   1      10.084  21.626  24.323  1.00  0.00    +0.000 H 
ATOM     16  C11 UNL A   1       8.947  18.590  25.198  1.00  0.00    +0.000 C 
ATOM     17  C12 UNL A   1       9.129  19.742  24.431  1.00  0.00    +0.000 C 
ATOM     18  C13 UNL A   1       9.988  20.753  24.864  1.00  0.00    +0.000 C 
ATOM     19  C14 UNL A   1      10.710  20.567  26.033  1.00  0.00    +0.000 C 
ATOM     95  N8  UNL A   1      10.490  19.485  26.833  1.00  0.00    +0.000 N 
ATOM     96  C67 UNL A   1       9.603  18.548  26.418  1.00  0.00    +0.000 C 
BRANCH   16   15
ATOM    104  H6  UNL A   1       5.089  16.434  23.851  1.00  0.00    +0.000 H 
ATOM      9  C6  UNL A   1       6.786  17.584  24.383  1.00  0.00    +0.000 C 
ATOM     10  C7  UNL A   1       6.097  16.402  24.070  1.00  0.00    +0.000 C 
ATOM     11  C8  UNL A   1       6.773  15.186  24.055  1.00  0.00    +0.000 C 
ATOM     12 Cl1  UNL A   1       5.934  13.727  23.719  1.00  0.00    +0.000 Cl
ATOM     13  C9  UNL A   1       8.129  15.177  24.329  1.00  0.00    +0.000 C 
ATOM     14  N1  UNL A   1       8.839  16.285  24.644  1.00  0.00    +0.000 N 
ATOM     15  C10 UNL A   1       8.162  17.462  24.692  1.00  0.00    +0.000 C 
ATOM    105  H7  UNL A   1       8.628  14.275  24.292  1.00  0.00    +0.000 H 
BRANCH    9    8
ATOM     97  C68 UNL A   1       5.719  19.474  25.639  1.00  0.00    +0.000 C 
ATOM     98  C69 UNL A   1       5.157  20.755  25.682  1.00  0.00    +0.000 C 
ATOM      5  C2  UNL A   1       4.943  21.452  24.493  1.00  0.00    +0.000 C 
ATOM    102  H4  UNL A   1       5.114  21.403  22.388  1.00  0.00    +0.000 H 
ATOM      6  C3  UNL A   1       5.271  20.881  23.264  1.00  0.00    +0.000 C 
ATOM      7  C4  UNL A   1       5.817  19.595  23.230  1.00  0.00    +0.000 C 
ATOM    103  H5  UNL A   1       6.031  19.160  22.319  1.00  0.00    +0.000 H 
ATOM    138  H40 UNL A   1       4.902  21.179  26.587  1.00  0.00    +0.000 H 
ATOM      8  C5  UNL A   1       6.078  18.882  24.416  1.00  0.00    +0.000 C 
ATOM    137  H39 UNL A   1       5.874  18.957  26.519  1.00  0.00    +0.000 H 
BRANCH    5    2
ATOM      2  S1  UNL A   1       4.304  23.111  24.535  1.00  0.00    +0.000 S 
ATOM      3  O1  UNL A   1       4.284  23.590  23.164  1.00  0.00    +0.000 O 
ATOM      4  O2  UNL A   1       5.027  23.833  25.561  1.00  0.00    +0.000 O 
BRANCH    2    1
ATOM      1  C1  UNL A   1       2.632  22.900  25.086  1.00  0.00    +0.000 C 
ATOM     99  H1  UNL A   1       1.967  23.006  24.255  1.00  0.00    +0.000 H 
ATOM    100  H2  UNL A   1       2.403  23.641  25.823  1.00  0.00    +0.000 H 
ATOM    101  H3  UNL A   1       2.517  21.925  25.512  1.00  0.00    +0.000 H 
ENDBRANCH    2    1
ENDBRANCH    5    2
ENDBRANCH    9    8
ENDBRANCH   16   15
ENDBRANCH   20   19
ENDBRANCH   22   20
ENDBRANCH   23   22
ENDBRANCH   24   23
ENDBRANCH   25   24
ENDBRANCH   26   25
ENDBRANCH   27   26
ENDBRANCH   28   27
ENDBRANCH   29   28
ENDBRANCH   30   29
ENDBRANCH   32   30
ENDBRANCH   36   35
BRANCH   40   41
ATOM     41  C31 UNL A   1      11.416  14.251  19.765  1.00  0.00    +0.000 C 
ATOM     42  C32 UNL A   1      12.054  13.859  18.578  1.00  0.00    +0.000 C 
ATOM     43  F1  UNL A   1      12.162  14.718  17.554  1.00  0.00    +0.000 F 
ATOM     44  C33 UNL A   1      12.559  12.571  18.427  1.00  0.00    +0.000 C 
ATOM     45  F2  UNL A   1      13.130  12.208  17.270  1.00  0.00    +0.000 F 
ATOM     46  C34 UNL A   1      12.469  11.662  19.470  1.00  0.00    +0.000 C 
ATOM     47  F3  UNL A   1      12.973  10.427  19.330  1.00  0.00    +0.000 F 
ATOM     48  C35 UNL A   1      11.855  12.030  20.657  1.00  0.00    +0.000 C 
ATOM     49  F4  UNL A   1      11.781  11.158  21.672  1.00  0.00    +0.000 F 
ATOM     50  C36 UNL A   1      11.319  13.309  20.799  1.00  0.00    +0.000 C 
ATOM     51  F5  UNL A   1      10.724  13.632  21.958  1.00  0.00    +0.000 F 
ENDBRANCH   40   41
BRANCH   57   58
ATOM     65  C46 UNL A   1       3.035  17.298  19.082  1.00  0.00    +0.000 C 
ATOM     66  F9  UNL A   1       2.085  16.891  19.935  1.00  0.00    +0.000 F 
ATOM     67  C47 UNL A   1       4.318  17.569  19.548  1.00  0.00    +0.000 C 
ATOM     68  F10 UNL A   1       4.570  17.428  20.858  1.00  0.00    +0.000 F 
ATOM     58  C42 UNL A   1       5.337  17.971  18.671  1.00  0.00    +0.000 C 
ATOM     59  C43 UNL A   1       5.020  18.093  17.310  1.00  0.00    +0.000 C 
ATOM     60  F6  UNL A   1       5.954  18.488  16.431  1.00  0.00    +0.000 F 
ATOM     61  C44 UNL A   1       3.727  17.857  16.852  1.00  0.00    +0.000 C 
ATOM     62  F7  UNL A   1       3.433  18.039  15.557  1.00  0.00    +0.000 F 
ATOM     63  C45 UNL A   1       2.738  17.453  17.736  1.00  0.00    +0.000 C 
ATOM     64  F8  UNL A   1       1.495  17.221  17.292  1.00  0.00    +0.000 F 
ENDBRANCH   57   58
BRANCH   72   73
ATOM     73  C51 UNL A   1       8.430  23.689  21.175  1.00  0.00    +0.000 C 
ATOM     74  C52 UNL A   1       8.695  24.649  20.188  1.00  0.00    +0.000 C 
ATOM     75  F11 UNL A   1       9.340  24.296  19.067  1.00  0.00    +0.000 F 
ATOM     76  C53 UNL A   1       8.353  25.986  20.374  1.00  0.00    +0.000 C 
ATOM     77  F12 UNL A   1       8.683  26.894  19.446  1.00  0.00    +0.000 F 
ATOM     78  C54 UNL A   1       7.700  26.384  21.530  1.00  0.00    +0.000 C 
ATOM     79  F13 UNL A   1       7.379  27.672  21.713  1.00  0.00    +0.000 F 
ATOM     80  C55 UNL A   1       7.395  25.446  22.505  1.00  0.00    +0.000 C 
ATOM     81  F14 UNL A   1       6.749  25.822  23.618  1.00  0.00    +0.000 F 
ATOM     82  C56 UNL A   1       7.769  24.115  22.336  1.00  0.00    +0.000 C 
ATOM     83  F15 UNL A   1       7.484  23.238  23.310  1.00  0.00    +0.000 F 
ENDBRANCH   72   73
TORSDOF 19
ENDMDL
MODEL 2
REMARK VINA RESULT:      -8.4     43.622     50.537
ROOT
ATOM    129  H31 UNL A   1      48.419  53.016  18.062  1.00  0.00    +0.000 H 
ATOM    130  H32 UNL A   1      49.934  57.539  16.492  1.00  0.00    +0.000 H 
ATOM    131  H33 UNL A   1      52.042  57.172  17.895  1.00  0.00    +0.000 H 
ATOM    132  H34 UNL A   1      48.366  48.478  21.326  1.00  0.00    +0.000 H 
ATOM    133  H35 UNL A   1      46.513  48.569  19.559  1.00  0.00    +0.000 H 
ATOM     36  C27 UNL A   1      46.492  50.987  18.043  1.00  0.00    +0.000 C 
ATOM     37  C28 UNL A   1      47.498  50.555  19.074  1.00  0.00    +0.000 C 
ATOM     38  N4  UNL A   1      48.568  51.179  19.498  1.00  0.00    +0.000 N 
ATOM     39  C29 UNL A   1      49.127  50.355  20.466  1.00  0.00    +0.000 C 
ATOM     40  C30 UNL A   1      50.289  50.517  21.142  1.00  0.00    +0.000 C 
ATOM     52  C37 UNL A   1      51.171  51.643  20.979  1.00  0.00    +0.000 C 
ATOM     53  C38 UNL A   1      52.384  51.886  21.598  1.00  0.00    +0.000 C 
ATOM     54  C39 UNL A   1      52.857  53.129  21.164  1.00  0.00    +0.000 C 
ATOM     55  C40 UNL A   1      51.968  53.633  20.229  1.00  0.00    +0.000 C 
ATOM     56  N5  UNL A   1      50.932  52.717  20.133  1.00  0.00    +0.000 N 
ATOM     57  C41 UNL A   1      52.057  54.858  19.478  1.00  0.00    +0.000 C 
ATOM     69  C48 UNL A   1      51.139  55.284  18.576  1.00  0.00    +0.000 C 
ATOM     70  N6  UNL A   1      49.958  54.675  18.175  1.00  0.00    +0.000 N 
ATOM     71  C49 UNL A   1      49.410  55.490  17.305  1.00  0.00    +0.000 C 
ATOM     72  C50 UNL A   1      48.137  55.325  16.517  1.00  0.00    +0.000 C 
ATOM     84  C57 UNL A   1      47.417  54.197  16.669  1.00  0.00    +0.000 C 
ATOM     85  C58 UNL A   1      46.175  53.886  15.970  1.00  0.00    +0.000 C 
ATOM     86  C59 UNL A   1      45.708  52.708  16.413  1.00  0.00    +0.000 C 
ATOM     87  C60 UNL A   1      46.642  52.160  17.398  1.00  0.00    +0.000 C 
ATOM     88  N7  UNL A   1      47.631  53.108  17.479  1.00  0.00    +0.000 N 
ATOM     89  C61 UNL A   1      50.171  56.727  17.082  1.00  0.00    +0.000 C 
ATOM     90  C62 UNL A   1      51.239  56.526  17.839  1.00  0.00    +0.000 C 
ATOM     91  C63 UNL A   1      48.243  49.221  20.620  1.00  0.00    +0.000 C 
ATOM     92  C64 UNL A   1      47.257  49.263  19.737  1.00  0.00    +0.000 C 
ATOM    124  H26 UNL A   1      52.860  51.257  22.264  1.00  0.00    +0.000 H 
ATOM    125  H27 UNL A   1      53.721  53.592  21.486  1.00  0.00    +0.000 H 
ATOM    126  H28 UNL A   1      50.143  52.813  19.552  1.00  0.00    +0.000 H 
ATOM    127  H29 UNL A   1      45.728  54.476  15.252  1.00  0.00    +0.000 H 
ATOM    128  H30 UNL A   1      44.829  52.261  16.108  1.00  0.00    +0.000 H 
ENDROOT
BRANCH   36   35
ATOM     33  C24 UNL A   1      44.228  48.358  16.506  1.00  0.00    +0.000 C 
ATOM     34  C25 UNL A   1      45.369  49.099  16.820  1.00  0.00    +0.000 C 
ATOM     35  C26 UNL A   1      45.303  50.144  17.756  1.00  0.00    +0.000 C 
ATOM    134  H36 UNL A   1      44.035  51.164  19.107  1.00  0.00    +0.000 H 
ATOM    135  H37 UNL A   1      42.118  49.732  18.721  1.00  0.00    +0.000 H 
ATOM    122  H24 UNL A   1      44.273  47.615  15.793  1.00  0.00    +0.000 H 
ATOM    123  H25 UNL A   1      46.266  48.877  16.362  1.00  0.00    +0.000 H 
ATOM     93  C65 UNL A   1      44.096  50.392  18.424  1.00  0.00    +0.000 C 
ATOM     94  C66 UNL A   1      42.979  49.601  18.169  1.00  0.00    +0.000 C 
ATOM     32  C23 UNL A   1      43.027  48.629  17.164  1.00  0.00    +0.000 C 
BRANCH   32   30
ATOM     30  C22 UNL A   1      41.822  47.855  16.800  1.00  0.00    +0.000 C 
ATOM     31  O4  UNL A   1      40.708  48.282  17.090  1.00  0.00    +0.000 O 
BRANCH   30   29
ATOM    121  H23 UNL A   1      42.050  46.730  15.157  1.00  0.00    +0.000 H 
ATOM     29  N3  UNL A   1      41.952  46.664  16.134  1.00  0.00    +0.000 N 
BRANCH   29   28
ATOM     28  C21 UNL A   1      41.963  45.315  16.680  1.00  0.00    +0.000 C 
ATOM    119  H21 UNL A   1      41.410  45.306  17.597  1.00  0.00    +0.000 H 
ATOM    120  H22 UNL A   1      41.521  44.659  15.960  1.00  0.00    +0.000 H 
BRANCH   28   27
ATOM     27  C20 UNL A   1      43.383  44.831  16.956  1.00  0.00    +0.000 C 
ATOM    117  H19 UNL A   1      43.808  44.493  16.034  1.00  0.00    +0.000 H 
ATOM    118  H20 UNL A   1      43.915  45.657  17.378  1.00  0.00    +0.000 H 
BRANCH   27   26
ATOM     26  C19 UNL A   1      43.465  43.687  17.971  1.00  0.00    +0.000 C 
ATOM    115  H17 UNL A   1      42.718  42.963  17.719  1.00  0.00    +0.000 H 
ATOM    116  H18 UNL A   1      44.462  43.302  17.912  1.00  0.00    +0.000 H 
BRANCH   26   25
ATOM     25  C18 UNL A   1      43.250  44.106  19.433  1.00  0.00    +0.000 C 
ATOM    114  H16 UNL A   1      43.087  45.163  19.422  1.00  0.00    +0.000 H 
ATOM    113  H15 UNL A   1      44.115  43.817  19.992  1.00  0.00    +0.000 H 
BRANCH   25   24
ATOM    112  H14 UNL A   1      41.360  43.155  19.325  1.00  0.00    +0.000 H 
ATOM    111  H13 UNL A   1      41.559  44.223  20.727  1.00  0.00    +0.000 H 
ATOM     24  C17 UNL A   1      42.016  43.484  20.103  1.00  0.00    +0.000 C 
BRANCH   24   23
ATOM    109  H11 UNL A   1      41.944  41.385  20.507  1.00  0.00    +0.000 H 
ATOM    110  H12 UNL A   1      43.416  42.172  21.040  1.00  0.00    +0.000 H 
ATOM     23  C16 UNL A   1      42.353  42.262  20.963  1.00  0.00    +0.000 C 
BRANCH   23   22
ATOM    108  H10 UNL A   1      40.828  42.601  22.281  1.00  0.00    +0.000 H 
ATOM     22  N2  UNL A   1      41.794  42.417  22.290  1.00  0.00    +0.000 N 
BRANCH   22   20
ATOM     20  C15 UNL A   1      42.317  42.364  23.562  1.00  0.00    +0.000 C 
ATOM     21  O3  UNL A   1      41.718  41.627  24.352  1.00  0.00    +0.000 O 
BRANCH   20   19
ATOM    136  H38 UNL A   1      45.889  42.699  26.213  1.00  0.00    +0.000 H 
ATOM    106  H8  UNL A   1      45.072  46.101  23.958  1.00  0.00    +0.000 H 
ATOM    107  H9  UNL A   1      43.317  44.868  22.815  1.00  0.00    +0.000 H 
ATOM     16  C11 UNL A   1      45.593  44.526  25.260  1.00  0.00    +0.000 C 
ATOM     17  C12 UNL A   1      44.856  45.133  24.241  1.00  0.00    +0.000 C 
ATOM     18  C13 UNL A   1      43.828  44.439  23.602  1.00  0.00    +0.000 C 
ATOM     19  C14 UNL A   1      43.503  43.164  24.039  1.00  0.00    +0.000 C 
ATOM     95  N8  UNL A   1      44.259  42.527  24.979  1.00  0.00    +0.000 N 
ATOM     96  C67 UNL A   1      45.291  43.202  25.539  1.00  0.00    +0.000 C 
BRANCH   16   15
ATOM    104  H6  UNL A   1      49.755  46.330  26.132  1.00  0.00    +0.000 H 
ATOM      9  C6  UNL A   1      47.878  45.547  25.543  1.00  0.00    +0.000 C 
ATOM     10  C7  UNL A   1      48.789  46.133  26.436  1.00  0.00    +0.000 C 
ATOM     11  C8  UNL A   1      48.390  46.446  27.732  1.00  0.00    +0.000 C 
ATOM     12 Cl1  UNL A   1      49.506  47.120  28.848  1.00  0.00    +0.000 Cl
ATOM     13  C9  UNL A   1      47.081  46.191  28.103  1.00  0.00    +0.000 C 
ATOM     14  N1  UNL A   1      46.166  45.622  27.285  1.00  0.00    +0.000 N 
ATOM     15  C10 UNL A   1      46.576  45.285  26.035  1.00  0.00    +0.000 C 
ATOM    105  H7  UNL A   1      46.787  46.450  29.057  1.00  0.00    +0.000 H 
BRANCH    9    8
ATOM     97  C68 UNL A   1      48.802  43.919  23.875  1.00  0.00    +0.000 C 
ATOM     98  C69 UNL A   1      49.084  43.541  22.557  1.00  0.00    +0.000 C 
ATOM      5  C2  UNL A   1      48.861  44.446  21.519  1.00  0.00    +0.000 C 
ATOM    102  H4  UNL A   1      48.207  46.390  21.011  1.00  0.00    +0.000 H 
ATOM      6  C3  UNL A   1      48.374  45.725  21.783  1.00  0.00    +0.000 C 
ATOM      7  C4  UNL A   1      48.112  46.100  23.104  1.00  0.00    +0.000 C 
ATOM    103  H5  UNL A   1      47.781  47.057  23.302  1.00  0.00    +0.000 H 
ATOM    138  H40 UNL A   1      49.454  42.599  22.356  1.00  0.00    +0.000 H 
ATOM      8  C5  UNL A   1      48.292  45.195  24.168  1.00  0.00    +0.000 C 
ATOM    137  H39 UNL A   1      48.971  43.250  24.642  1.00  0.00    +0.000 H 
BRANCH    5    2
ATOM      2  S1  UNL A   1      49.137  43.955  19.833  1.00  0.00    +0.000 S 
ATOM      3  O1  UNL A   1      47.834  43.673  19.257  1.00  0.00    +0.000 O 
ATOM      4  O2  UNL A   1      50.180  42.950  19.833  1.00  0.00    +0.000 O 
BRANCH    2    1
ATOM      1  C1  UNL A   1      49.787  45.420  19.073  1.00  0.00    +0.000 C 
ATOM     99  H1  UNL A   1      49.883  46.191  19.809  1.00  0.00    +0.000 H 
ATOM    100  H2  UNL A   1      49.124  45.745  18.300  1.00  0.00    +0.000 H 
ATOM    101  H3  UNL A   1      50.748  45.207  18.653  1.00  0.00    +0.000 H 
ENDBRANCH    2    1
ENDBRANCH    5    2
ENDBRANCH    9    8
ENDBRANCH   16   15
ENDBRANCH   20   19
ENDBRANCH   22   20
ENDBRANCH   23   22
ENDBRANCH   24   23
ENDBRANCH   25   24
ENDBRANCH   26   25
ENDBRANCH   27   26
ENDBRANCH   28   27
ENDBRANCH   29   28
ENDBRANCH   30   29
ENDBRANCH   32   30
ENDBRANCH   36   35
BRANCH   40   41
ATOM     41  C31 UNL A   1      50.690  49.441  22.112  1.00  0.00    +0.000 C 
ATOM     42  C32 UNL A   1      50.393  49.544  23.481  1.00  0.00    +0.000 C 
ATOM     43  F1  UNL A   1      49.805  50.648  23.963  1.00  0.00    +0.000 F 
ATOM     44  C33 UNL A   1      50.727  48.522  24.365  1.00  0.00    +0.000 C 
ATOM     45  F2  UNL A   1      50.469  48.659  25.673  1.00  0.00    +0.000 F 
ATOM     46  C34 UNL A   1      51.329  47.365  23.895  1.00  0.00    +0.000 C 
ATOM     47  F3  UNL A   1      51.634  46.374  24.745  1.00  0.00    +0.000 F 
ATOM     48  C35 UNL A   1      51.620  47.235  22.546  1.00  0.00    +0.000 C 
ATOM     49  F4  UNL A   1      52.188  46.112  22.088  1.00  0.00    +0.000 F 
ATOM     50  C36 UNL A   1      51.316  48.270  21.663  1.00  0.00    +0.000 C 
ATOM     51  F5  UNL A   1      51.618  48.117  20.365  1.00  0.00    +0.000 F 
ENDBRANCH   40   41
BRANCH   57   58
ATOM     65  C46 UNL A   1      54.355  57.580  20.819  1.00  0.00    +0.000 C 
ATOM     66  F9  UNL A   1      54.304  58.577  21.714  1.00  0.00    +0.000 F 
ATOM     67  C47 UNL A   1      53.251  56.754  20.636  1.00  0.00    +0.000 C 
ATOM     68  F10 UNL A   1      52.155  56.969  21.380  1.00  0.00    +0.000 F 
ATOM     58  C42 UNL A   1      53.269  55.721  19.686  1.00  0.00    +0.000 C 
ATOM     59  C43 UNL A   1      54.438  55.547  18.930  1.00  0.00    +0.000 C 
ATOM     60  F6  UNL A   1      54.514  54.565  18.018  1.00  0.00    +0.000 F 
ATOM     61  C44 UNL A   1      55.554  56.352  19.141  1.00  0.00    +0.000 C 
ATOM     62  F7  UNL A   1      56.680  56.129  18.448  1.00  0.00    +0.000 F 
ATOM     63  C45 UNL A   1      55.509  57.372  20.080  1.00  0.00    +0.000 C 
ATOM     64  F8  UNL A   1      56.583  58.150  20.277  1.00  0.00    +0.000 F 
ENDBRANCH   57   58
BRANCH   72   73
ATOM     73  C51 UNL A   1      47.678  56.390  15.584  1.00  0.00    +0.000 C 
ATOM     74  C52 UNL A   1      47.047  57.549  16.059  1.00  0.00    +0.000 C 
ATOM     75  F11 UNL A   1      46.866  57.720  17.376  1.00  0.00    +0.000 F 
ATOM     76  C53 UNL A   1      46.545  58.507  15.181  1.00  0.00    +0.000 C 
ATOM     77  F12 UNL A   1      45.882  59.568  15.660  1.00  0.00    +0.000 F 
ATOM     78  C54 UNL A   1      46.702  58.348  13.813  1.00  0.00    +0.000 C 
ATOM     79  F13 UNL A   1      46.211  59.265  12.968  1.00  0.00    +0.000 F 
ATOM     80  C55 UNL A   1      47.355  57.228  13.321  1.00  0.00    +0.000 C 
ATOM     81  F14 UNL A   1      47.524  57.078  12.000  1.00  0.00    +0.000 F 
ATOM     82  C56 UNL A   1      47.825  56.252  14.196  1.00  0.00    +0.000 C 
ATOM     83  F15 UNL A   1      48.428  55.167  13.687  1.00  0.00    +0.000 F 
ENDBRANCH   72   73
TORSDOF 19
ENDMDL
MODEL 3
REMARK VINA RESULT:      -8.3     31.963     37.782
ROOT
ATOM    129  H31 UNL A   1      15.201  52.347   3.095  1.00  0.00    +0.000 H 
ATOM    130  H32 UNL A   1      15.897  57.304   3.490  1.00  0.00    +0.000 H 
ATOM    131  H33 UNL A   1      16.869  57.222   1.125  1.00  0.00    +0.000 H 
ATOM    132  H34 UNL A   1      15.928  47.223   0.981  1.00  0.00    +0.000 H 
ATOM    133  H35 UNL A   1      14.494  47.332   3.101  1.00  0.00    +0.000 H 
ATOM     36  C27 UNL A   1      14.304  49.949   4.225  1.00  0.00    +0.000 C 
ATOM     37  C28 UNL A   1      14.966  49.545   2.936  1.00  0.00    +0.000 C 
ATOM     38  N4  UNL A   1      15.589  50.290   2.057  1.00  0.00    +0.000 N 
ATOM     39  C29 UNL A   1      16.028  49.420   1.068  1.00  0.00    +0.000 C 
ATOM     40  C30 UNL A   1      16.651  49.714  -0.098  1.00  0.00    +0.000 C 
ATOM     52  C37 UNL A   1      17.004  51.046  -0.514  1.00  0.00    +0.000 C 
ATOM     53  C38 UNL A   1      17.612  51.450  -1.689  1.00  0.00    +0.000 C 
ATOM     54  C39 UNL A   1      17.799  52.835  -1.632  1.00  0.00    +0.000 C 
ATOM     55  C40 UNL A   1      17.252  53.302  -0.448  1.00  0.00    +0.000 C 
ATOM     56  N5  UNL A   1      16.777  52.192   0.234  1.00  0.00    +0.000 N 
ATOM     57  C41 UNL A   1      17.167  54.659   0.025  1.00  0.00    +0.000 C 
ATOM     69  C48 UNL A   1      16.614  55.037   1.203  1.00  0.00    +0.000 C 
ATOM     70  N6  UNL A   1      16.021  54.253   2.184  1.00  0.00    +0.000 N 
ATOM     71  C49 UNL A   1      15.664  55.078   3.140  1.00  0.00    +0.000 C 
ATOM     72  C50 UNL A   1      14.947  54.786   4.431  1.00  0.00    +0.000 C 
ATOM     84  C57 UNL A   1      14.576  53.519   4.699  1.00  0.00    +0.000 C 
ATOM     85  C58 UNL A   1      13.866  53.082   5.896  1.00  0.00    +0.000 C 
ATOM     86  C59 UNL A   1      13.718  51.748   5.853  1.00  0.00    +0.000 C 
ATOM     87  C60 UNL A   1      14.286  51.241   4.602  1.00  0.00    +0.000 C 
ATOM     88  N7  UNL A   1      14.764  52.366   3.977  1.00  0.00    +0.000 N 
ATOM     89  C61 UNL A   1      16.022  56.479   2.883  1.00  0.00    +0.000 C 
ATOM     90  C62 UNL A   1      16.548  56.406   1.670  1.00  0.00    +0.000 C 
ATOM     91  C63 UNL A   1      15.664  48.084   1.486  1.00  0.00    +0.000 C 
ATOM     92  C64 UNL A   1      14.947  48.113   2.599  1.00  0.00    +0.000 C 
ATOM    124  H26 UNL A   1      17.881  50.836  -2.474  1.00  0.00    +0.000 H 
ATOM    125  H27 UNL A   1      18.265  53.412  -2.349  1.00  0.00    +0.000 H 
ATOM    126  H28 UNL A   1      16.344  52.214   1.118  1.00  0.00    +0.000 H 
ATOM    127  H29 UNL A   1      13.532  53.697   6.653  1.00  0.00    +0.000 H 
ATOM    128  H30 UNL A   1      13.274  51.172   6.585  1.00  0.00    +0.000 H 
ENDROOT
BRANCH   36   35
ATOM     33  C24 UNL A   1      13.907  47.302   6.914  1.00  0.00    +0.000 C 
ATOM     34  C25 UNL A   1      14.459  48.317   6.130  1.00  0.00    +0.000 C 
ATOM     35  C26 UNL A   1      13.703  48.921   5.112  1.00  0.00    +0.000 C 
ATOM    134  H36 UNL A   1      11.803  48.975   4.185  1.00  0.00    +0.000 H 
ATOM    135  H37 UNL A   1      10.785  47.375   5.693  1.00  0.00    +0.000 H 
ATOM    122  H24 UNL A   1      14.477  46.836   7.637  1.00  0.00    +0.000 H 
ATOM    123  H25 UNL A   1      15.430  48.625   6.300  1.00  0.00    +0.000 H 
ATOM     93  C65 UNL A   1      12.365  48.544   4.937  1.00  0.00    +0.000 C 
ATOM     94  C66 UNL A   1      11.790  47.589   5.770  1.00  0.00    +0.000 C 
ATOM     32  C23 UNL A   1      12.578  46.922   6.714  1.00  0.00    +0.000 C 
BRANCH   32   30
ATOM     30  C22 UNL A   1      12.017  45.827   7.533  1.00  0.00    +0.000 C 
ATOM     31  O4  UNL A   1      11.665  44.780   6.998  1.00  0.00    +0.000 O 
BRANCH   30   29
ATOM    121  H23 UNL A   1      12.705  45.776   9.415  1.00  0.00    +0.000 H 
ATOM     29  N3  UNL A   1      11.898  45.982   8.890  1.00  0.00    +0.000 N 
BRANCH   29   28
ATOM     28  C21 UNL A   1      10.738  46.410   9.657  1.00  0.00    +0.000 C 
ATOM    119  H21 UNL A   1      10.362  47.322   9.238  1.00  0.00    +0.000 H 
ATOM    120  H22 UNL A   1      10.002  45.636   9.609  1.00  0.00    +0.000 H 
BRANCH   28   27
ATOM     27  C20 UNL A   1      11.087  46.647  11.122  1.00  0.00    +0.000 C 
ATOM    117  H19 UNL A   1      11.534  47.615  11.209  1.00  0.00    +0.000 H 
ATOM    118  H20 UNL A   1      10.175  46.562  11.675  1.00  0.00    +0.000 H 
BRANCH   27   26
ATOM     26  C19 UNL A   1      12.057  45.615  11.706  1.00  0.00    +0.000 C 
ATOM    115  H17 UNL A   1      11.864  44.673  11.238  1.00  0.00    +0.000 H 
ATOM    116  H18 UNL A   1      13.043  45.987  11.517  1.00  0.00    +0.000 H 
BRANCH   26   25
ATOM     25  C18 UNL A   1      11.953  45.423  13.227  1.00  0.00    +0.000 C 
ATOM    114  H16 UNL A   1      11.885  44.369  13.394  1.00  0.00    +0.000 H 
ATOM    113  H15 UNL A   1      11.096  45.962  13.573  1.00  0.00    +0.000 H 
BRANCH   25   24
ATOM    112  H14 UNL A   1      13.620  46.709  13.465  1.00  0.00    +0.000 H 
ATOM    111  H13 UNL A   1      13.849  45.088  14.145  1.00  0.00    +0.000 H 
ATOM     24  C17 UNL A   1      13.176  45.909  14.019  1.00  0.00    +0.000 C 
BRANCH   24   23
ATOM    109  H11 UNL A   1      12.612  45.644  16.066  1.00  0.00    +0.000 H 
ATOM    110  H12 UNL A   1      13.635  47.037  15.773  1.00  0.00    +0.000 H 
ATOM     23  C16 UNL A   1      12.815  46.458  15.403  1.00  0.00    +0.000 C 
BRANCH   23   22
ATOM    108  H10 UNL A   1      10.843  46.821  15.008  1.00  0.00    +0.000 H 
ATOM     22  N2  UNL A   1      11.643  47.305  15.313  1.00  0.00    +0.000 N 
BRANCH   22   20
ATOM     20  C15 UNL A   1      11.402  48.637  15.560  1.00  0.00    +0.000 C 
ATOM     21  O3  UNL A   1      11.046  48.908  16.711  1.00  0.00    +0.000 O 
BRANCH   20   19
ATOM    136  H38 UNL A   1      12.448  52.854  14.543  1.00  0.00    +0.000 H 
ATOM    106  H8  UNL A   1      10.763  50.679  11.420  1.00  0.00    +0.000 H 
ATOM    107  H9  UNL A   1      10.840  48.693  12.820  1.00  0.00    +0.000 H 
ATOM     16  C11 UNL A   1      11.528  51.979  12.894  1.00  0.00    +0.000 C 
ATOM     17  C12 UNL A   1      11.096  50.748  12.394  1.00  0.00    +0.000 C 
ATOM     18  C13 UNL A   1      11.111  49.611  13.203  1.00  0.00    +0.000 C 
ATOM     19  C14 UNL A   1      11.496  49.734  14.529  1.00  0.00    +0.000 C 
ATOM     95  N8  UNL A   1      11.992  50.908  15.013  1.00  0.00    +0.000 N 
ATOM     96  C67 UNL A   1      12.026  51.982  14.187  1.00  0.00    +0.000 C 
BRANCH   16   15
ATOM    104  H6  UNL A   1      12.913  55.246   9.936  1.00  0.00    +0.000 H 
ATOM      9  C6  UNL A   1      12.373  53.619  11.178  1.00  0.00    +0.000 C 
ATOM     10  C7  UNL A   1      12.214  54.891  10.607  1.00  0.00    +0.000 C 
ATOM     11  C8  UNL A   1      11.116  55.674  10.946  1.00  0.00    +0.000 C 
ATOM     12 Cl1  UNL A   1      10.934  57.250  10.292  1.00  0.00    +0.000 Cl
ATOM     13  C9  UNL A   1      10.183  55.161  11.831  1.00  0.00    +0.000 C 
ATOM     14  N1  UNL A   1      10.291  53.946  12.416  1.00  0.00    +0.000 N 
ATOM     15  C10 UNL A   1      11.387  53.205  12.106  1.00  0.00    +0.000 C 
ATOM    105  H7  UNL A   1       9.359  55.738  12.058  1.00  0.00    +0.000 H 
BRANCH    9    8
ATOM     97  C68 UNL A   1      14.684  52.771  11.657  1.00  0.00    +0.000 C 
ATOM     98  C69 UNL A   1      15.744  51.894  11.407  1.00  0.00    +0.000 C 
ATOM      5  C2  UNL A   1      15.671  51.019  10.323  1.00  0.00    +0.000 C 
ATOM    102  H4  UNL A   1      14.509  50.367   8.683  1.00  0.00    +0.000 H 
ATOM      6  C3  UNL A   1      14.560  51.019   9.481  1.00  0.00    +0.000 C 
ATOM      7  C4  UNL A   1      13.513  51.911   9.729  1.00  0.00    +0.000 C 
ATOM    103  H5  UNL A   1      12.704  51.933   9.089  1.00  0.00    +0.000 H 
ATOM    138  H40 UNL A   1      16.574  51.894  12.019  1.00  0.00    +0.000 H 
ATOM      8  C5  UNL A   1      13.542  52.780  10.838  1.00  0.00    +0.000 C 
ATOM    137  H39 UNL A   1      14.741  53.421  12.457  1.00  0.00    +0.000 H 
BRANCH    5    2
ATOM      2  S1  UNL A   1      16.973  49.842  10.037  1.00  0.00    +0.000 S 
ATOM      3  O1  UNL A   1      16.376  48.711   9.348  1.00  0.00    +0.000 O 
ATOM      4  O2  UNL A   1      17.680  49.658  11.288  1.00  0.00    +0.000 O 
BRANCH    2    1
ATOM      1  C1  UNL A   1      18.056  50.683   8.913  1.00  0.00    +0.000 C 
ATOM     99  H1  UNL A   1      19.057  50.334   9.053  1.00  0.00    +0.000 H 
ATOM    100  H2  UNL A   1      18.016  51.736   9.099  1.00  0.00    +0.000 H 
ATOM    101  H3  UNL A   1      17.748  50.487   7.906  1.00  0.00    +0.000 H 
ENDBRANCH    2    1
ENDBRANCH    5    2
ENDBRANCH    9    8
ENDBRANCH   16   15
ENDBRANCH   20   19
ENDBRANCH   22   20
ENDBRANCH   23   22
ENDBRANCH   24   23
ENDBRANCH   25   24
ENDBRANCH   26   25
ENDBRANCH   27   26
ENDBRANCH   28   27
ENDBRANCH   29   28
ENDBRANCH   30   29
ENDBRANCH   32   30
ENDBRANCH   36   35
BRANCH   40   41
ATOM     41  C31 UNL A   1      16.979  48.575  -1.022  1.00  0.00    +0.000 C 
ATOM     42  C32 UNL A   1      16.189  48.298  -2.149  1.00  0.00    +0.000 C 
ATOM     43  F1  UNL A   1      15.075  49.007  -2.384  1.00  0.00    +0.000 F 
ATOM     44  C33 UNL A   1      16.525  47.270  -3.025  1.00  0.00    +0.000 C 
ATOM     45  F2  UNL A   1      15.734  47.000  -4.073  1.00  0.00    +0.000 F 
ATOM     46  C34 UNL A   1      17.675  46.524  -2.814  1.00  0.00    +0.000 C 
ATOM     47  F3  UNL A   1      18.007  45.546  -3.669  1.00  0.00    +0.000 F 
ATOM     48  C35 UNL A   1      18.478  46.788  -1.715  1.00  0.00    +0.000 C 
ATOM     49  F4  UNL A   1      19.596  46.077  -1.517  1.00  0.00    +0.000 F 
ATOM     50  C36 UNL A   1      18.126  47.794  -0.818  1.00  0.00    +0.000 C 
ATOM     51  F5  UNL A   1      18.920  48.020   0.240  1.00  0.00    +0.000 F 
ENDBRANCH   40   41
BRANCH   57   58
ATOM     65  C46 UNL A   1      17.366  57.361  -2.648  1.00  0.00    +0.000 C 
ATOM     66  F9  UNL A   1      16.559  57.927  -3.555  1.00  0.00    +0.000 F 
ATOM     67  C47 UNL A   1      16.875  56.374  -1.800  1.00  0.00    +0.000 C 
ATOM     68  F10 UNL A   1      15.584  56.021  -1.903  1.00  0.00    +0.000 F 
ATOM     58  C42 UNL A   1      17.707  55.746  -0.860  1.00  0.00    +0.000 C 
ATOM     59  C43 UNL A   1      19.050  56.148  -0.802  1.00  0.00    +0.000 C 
ATOM     60  F6  UNL A   1      19.884  55.591   0.089  1.00  0.00    +0.000 F 
ATOM     61  C44 UNL A   1      19.530  57.162  -1.627  1.00  0.00    +0.000 C 
ATOM     62  F7  UNL A   1      20.801  57.571  -1.512  1.00  0.00    +0.000 F 
ATOM     63  C45 UNL A   1      18.690  57.762  -2.554  1.00  0.00    +0.000 C 
ATOM     64  F8  UNL A   1      19.156  58.733  -3.351  1.00  0.00    +0.000 F 
ENDBRANCH   57   58
BRANCH   72   73
ATOM     73  C51 UNL A   1      14.648  55.878   5.397  1.00  0.00    +0.000 C 
ATOM     74  C52 UNL A   1      15.663  56.457   6.173  1.00  0.00    +0.000 C 
ATOM     75  F11 UNL A   1      16.930  56.042   6.035  1.00  0.00    +0.000 F 
ATOM     76  C53 UNL A   1      15.371  57.421   7.135  1.00  0.00    +0.000 C 
ATOM     77  F12 UNL A   1      16.350  57.905   7.912  1.00  0.00    +0.000 F 
ATOM     78  C54 UNL A   1      14.068  57.857   7.312  1.00  0.00    +0.000 C 
ATOM     79  F13 UNL A   1      13.787  58.779   8.244  1.00  0.00    +0.000 F 
ATOM     80  C55 UNL A   1      13.052  57.326   6.531  1.00  0.00    +0.000 C 
ATOM     81  F14 UNL A   1      11.792  57.756   6.686  1.00  0.00    +0.000 F 
ATOM     82  C56 UNL A   1      13.337  56.335   5.595  1.00  0.00    +0.000 C 
ATOM     83  F15 UNL A   1      12.329  55.821   4.874  1.00  0.00    +0.000 F 
ENDBRANCH   72   73
TORSDOF 19
ENDMDL
MODEL 4
REMARK VINA RESULT:      -8.2     33.241     37.971
ROOT
ATOM    129  H31 UNL A   1      26.747 -12.536  31.527  1.00  0.00    +0.000 H 
ATOM    130  H32 UNL A   1      22.891  -9.888  29.702  1.00  0.00    +0.000 H 
ATOM    131  H33 UNL A   1      22.110  -9.608  32.123  1.00  0.00    +0.000 H 
ATOM    132  H34 UNL A   1      29.585 -15.508  35.317  1.00  0.00    +0.000 H 
ATOM    133  H35 UNL A   1      30.672 -15.377  33.002  1.00  0.00    +0.000 H 
ATOM     36  C27 UNL A   1      29.093 -13.993  31.069  1.00  0.00    +0.000 C 
ATOM     37  C28 UNL A   1      28.814 -14.160  32.538  1.00  0.00    +0.000 C 
ATOM     38  N4  UNL A   1      27.806 -13.714  33.245  1.00  0.00    +0.000 N 
ATOM     39  C29 UNL A   1      28.023 -14.166  34.540  1.00  0.00    +0.000 C 
ATOM     40  C30 UNL A   1      27.306 -13.901  35.657  1.00  0.00    +0.000 C 
ATOM     52  C37 UNL A   1      26.121 -13.084  35.683  1.00  0.00    +0.000 C 
ATOM     53  C38 UNL A   1      25.339 -12.733  36.769  1.00  0.00    +0.000 C 
ATOM     54  C39 UNL A   1      24.264 -11.966  36.307  1.00  0.00    +0.000 C 
ATOM     55  C40 UNL A   1      24.410 -11.789  34.941  1.00  0.00    +0.000 C 
ATOM     56  N5  UNL A   1      25.548 -12.489  34.569  1.00  0.00    +0.000 N 
ATOM     57  C41 UNL A   1      23.575 -11.036  34.041  1.00  0.00    +0.000 C 
ATOM     69  C48 UNL A   1      23.786 -10.910  32.708  1.00  0.00    +0.000 C 
ATOM     70  N6  UNL A   1      24.804 -11.442  31.929  1.00  0.00    +0.000 N 
ATOM     71  C49 UNL A   1      24.555 -11.059  30.699  1.00  0.00    +0.000 C 
ATOM     72  C50 UNL A   1      25.347 -11.313  29.444  1.00  0.00    +0.000 C 
ATOM     84  C57 UNL A   1      26.493 -12.016  29.526  1.00  0.00    +0.000 C 
ATOM     85  C58 UNL A   1      27.373 -12.332  28.407  1.00  0.00    +0.000 C 
ATOM     86  C59 UNL A   1      28.385 -13.095  28.850  1.00  0.00    +0.000 C 
ATOM     87  C60 UNL A   1      28.248 -13.286  30.295  1.00  0.00    +0.000 C 
ATOM     88  N7  UNL A   1      27.101 -12.601  30.610  1.00  0.00    +0.000 N 
ATOM     89  C61 UNL A   1      23.328 -10.264  30.558  1.00  0.00    +0.000 C 
ATOM     90  C62 UNL A   1      22.928 -10.158  31.816  1.00  0.00    +0.000 C 
ATOM     91  C63 UNL A   1      29.220 -14.979  34.510  1.00  0.00    +0.000 C 
ATOM     92  C64 UNL A   1      29.783 -14.952  33.312  1.00  0.00    +0.000 C 
ATOM    124  H26 UNL A   1      25.518 -12.991  37.753  1.00  0.00    +0.000 H 
ATOM    125  H27 UNL A   1      23.494 -11.596  36.884  1.00  0.00    +0.000 H 
ATOM    126  H28 UNL A   1      25.897 -12.555  33.651  1.00  0.00    +0.000 H 
ATOM    127  H29 UNL A   1      27.240 -12.021  27.433  1.00  0.00    +0.000 H 
ATOM    128  H30 UNL A   1      29.140 -13.485  28.264  1.00  0.00    +0.000 H 
ENDROOT
BRANCH   36   35
ATOM     33  C24 UNL A   1      31.342 -16.580  29.444  1.00  0.00    +0.000 C 
ATOM     34  C25 UNL A   1      30.205 -15.954  29.958  1.00  0.00    +0.000 C 
ATOM     35  C26 UNL A   1      30.277 -14.641  30.452  1.00  0.00    +0.000 C 
ATOM    134  H36 UNL A   1      31.554 -12.978  30.729  1.00  0.00    +0.000 H 
ATOM    135  H37 UNL A   1      33.464 -13.991  29.633  1.00  0.00    +0.000 H 
ATOM    122  H24 UNL A   1      31.292 -17.557  29.115  1.00  0.00    +0.000 H 
ATOM    123  H25 UNL A   1      29.305 -16.460  29.975  1.00  0.00    +0.000 H 
ATOM     93  C65 UNL A   1      31.487 -13.940  30.360  1.00  0.00    +0.000 C 
ATOM     94  C66 UNL A   1      32.600 -14.536  29.775  1.00  0.00    +0.000 C 
ATOM     32  C23 UNL A   1      32.546 -15.877  29.378  1.00  0.00    +0.000 C 
BRANCH   32   30
ATOM     30  C22 UNL A   1      33.747 -16.563  28.857  1.00  0.00    +0.000 C 
ATOM     31  O4  UNL A   1      34.393 -17.308  29.588  1.00  0.00    +0.000 O 
BRANCH   30   29
ATOM    121  H23 UNL A   1      35.012 -16.738  27.312  1.00  0.00    +0.000 H 
ATOM     29  N3  UNL A   1      34.132 -16.370  27.555  1.00  0.00    +0.000 N 
BRANCH   29   28
ATOM     28  C21 UNL A   1      33.413 -15.693  26.486  1.00  0.00    +0.000 C 
ATOM    119  H21 UNL A   1      33.527 -16.255  25.581  1.00  0.00    +0.000 H 
ATOM    120  H22 UNL A   1      32.383 -15.625  26.767  1.00  0.00    +0.000 H 
BRANCH   28   27
ATOM     27  C20 UNL A   1      33.940 -14.280  26.259  1.00  0.00    +0.000 C 
ATOM    117  H19 UNL A   1      33.145 -13.685  25.861  1.00  0.00    +0.000 H 
ATOM    118  H20 UNL A   1      34.289 -13.924  27.205  1.00  0.00    +0.000 H 
BRANCH   27   26
ATOM     26  C19 UNL A   1      35.126 -14.205  25.293  1.00  0.00    +0.000 C 
ATOM    115  H17 UNL A   1      35.825 -14.969  25.563  1.00  0.00    +0.000 H 
ATOM    116  H18 UNL A   1      34.723 -14.329  24.309  1.00  0.00    +0.000 H 
BRANCH   26   25
ATOM     25  C18 UNL A   1      35.868 -12.860  25.288  1.00  0.00    +0.000 C 
ATOM    114  H16 UNL A   1      36.524 -12.880  24.444  1.00  0.00    +0.000 H 
ATOM    113  H15 UNL A   1      36.382 -12.760  26.221  1.00  0.00    +0.000 H 
BRANCH   25   24
ATOM    112  H14 UNL A   1      33.954 -11.978  25.065  1.00  0.00    +0.000 H 
ATOM    111  H13 UNL A   1      35.251 -11.129  24.205  1.00  0.00    +0.000 H 
ATOM     24  C17 UNL A   1      34.965 -11.631  25.105  1.00  0.00    +0.000 C 
BRANCH   24   23
ATOM    109  H11 UNL A   1      35.933 -10.854  26.847  1.00  0.00    +0.000 H 
ATOM    110  H12 UNL A   1      35.121  -9.644  25.873  1.00  0.00    +0.000 H 
ATOM     23  C16 UNL A   1      35.061 -10.637  26.267  1.00  0.00    +0.000 C 
BRANCH   23   22
ATOM    108  H10 UNL A   1      33.926 -11.503  27.730  1.00  0.00    +0.000 H 
ATOM     22  N2  UNL A   1      33.887 -10.741  27.109  1.00  0.00    +0.000 N 
BRANCH   22   20
ATOM     20  C15 UNL A   1      32.729 -10.008  27.233  1.00  0.00    +0.000 C 
ATOM     21  O3  UNL A   1      32.834  -8.951  27.861  1.00  0.00    +0.000 O 
BRANCH   20   19
ATOM    136  H38 UNL A   1      30.302 -12.803  24.742  1.00  0.00    +0.000 H 
ATOM    106  H8  UNL A   1      28.147  -9.680  26.452  1.00  0.00    +0.000 H 
ATOM    107  H9  UNL A   1      30.147  -9.024  27.669  1.00  0.00    +0.000 H 
ATOM     16  C11 UNL A   1      29.069 -11.266  25.413  1.00  0.00    +0.000 C 
ATOM     17  C12 UNL A   1      29.032 -10.187  26.298  1.00  0.00    +0.000 C 
ATOM     18  C13 UNL A   1      30.184  -9.788  26.977  1.00  0.00    +0.000 C 
ATOM     19  C14 UNL A   1      31.381 -10.435  26.708  1.00  0.00    +0.000 C 
ATOM     95  N8  UNL A   1      31.422 -11.536  25.906  1.00  0.00    +0.000 N 
ATOM     96  C67 UNL A   1      30.275 -11.941  25.308  1.00  0.00    +0.000 C 
BRANCH   16   15
ATOM    104  H6  UNL A   1      26.063 -10.676  21.954  1.00  0.00    +0.000 H 
ATOM      9  C6  UNL A   1      27.580 -10.882  23.417  1.00  0.00    +0.000 C 
ATOM     10  C7  UNL A   1      26.355 -11.186  22.802  1.00  0.00    +0.000 C 
ATOM     11  C8  UNL A   1      25.534 -12.173  23.338  1.00  0.00    +0.000 C 
ATOM     12 Cl1  UNL A   1      24.013 -12.523  22.625  1.00  0.00    +0.000 Cl
ATOM     13  C9  UNL A   1      25.964 -12.855  24.463  1.00  0.00    +0.000 C 
ATOM     14  N1  UNL A   1      27.131 -12.597  25.098  1.00  0.00    +0.000 N 
ATOM     15  C10 UNL A   1      27.907 -11.606  24.589  1.00  0.00    +0.000 C 
ATOM    105  H7  UNL A   1      25.361 -13.603  24.839  1.00  0.00    +0.000 H 
BRANCH    9    8
ATOM     97  C68 UNL A   1      29.336 -10.101  21.806  1.00  0.00    +0.000 C 
ATOM     98  C69 UNL A   1      30.080  -9.080  21.204  1.00  0.00    +0.000 C 
ATOM      5  C2  UNL A   1      29.955  -7.771  21.669  1.00  0.00    +0.000 C 
ATOM    102  H4  UNL A   1      29.012  -6.502  23.071  1.00  0.00    +0.000 H 
ATOM      6  C3  UNL A   1      29.105  -7.472  22.733  1.00  0.00    +0.000 C 
ATOM      7  C4  UNL A   1      28.378  -8.501  23.339  1.00  0.00    +0.000 C 
ATOM    103  H5  UNL A   1      27.773  -8.285  24.146  1.00  0.00    +0.000 H 
ATOM    138  H40 UNL A   1      30.719  -9.295  20.422  1.00  0.00    +0.000 H 
ATOM      8  C5  UNL A   1      28.457  -9.826  22.867  1.00  0.00    +0.000 C 
ATOM    137  H39 UNL A   1      29.433 -11.069  21.464  1.00  0.00    +0.000 H 
BRANCH    5    2
ATOM      2  S1  UNL A   1      30.831  -6.450  20.864  1.00  0.00    +0.000 S 
ATOM      3  O1  UNL A   1      31.080  -5.433  21.871  1.00  0.00    +0.000 O 
ATOM      4  O2  UNL A   1      30.117  -6.127  19.647  1.00  0.00    +0.000 O 
BRANCH    2    1
ATOM      1  C1  UNL A   1      32.378  -7.191  20.413  1.00  0.00    +0.000 C 
ATOM     99  H1  UNL A   1      32.199  -8.032  19.778  1.00  0.00    +0.000 H 
ATOM    100  H2  UNL A   1      32.891  -7.513  21.295  1.00  0.00    +0.000 H 
ATOM    101  H3  UNL A   1      32.979  -6.474  19.893  1.00  0.00    +0.000 H 
ENDBRANCH    2    1
ENDBRANCH    5    2
ENDBRANCH    9    8
ENDBRANCH   16   15
ENDBRANCH   20   19
ENDBRANCH   22   20
ENDBRANCH   23   22
ENDBRANCH   24   23
ENDBRANCH   25   24
ENDBRANCH   26   25
ENDBRANCH   27   26
ENDBRANCH   28   27
ENDBRANCH   29   28
ENDBRANCH   30   29
ENDBRANCH   32   30
ENDBRANCH   36   35
BRANCH   40   41
ATOM     41  C31 UNL A   1      27.791 -14.484  36.954  1.00  0.00    +0.000 C 
ATOM     42  C32 UNL A   1      28.751 -13.825  37.738  1.00  0.00    +0.000 C 
ATOM     43  F1  UNL A   1      29.311 -12.686  37.304  1.00  0.00    +0.000 F 
ATOM     44  C33 UNL A   1      29.161 -14.349  38.961  1.00  0.00    +0.000 C 
ATOM     45  F2  UNL A   1      30.108 -13.722  39.673  1.00  0.00    +0.000 F 
ATOM     46  C34 UNL A   1      28.595 -15.520  39.440  1.00  0.00    +0.000 C 
ATOM     47  F3  UNL A   1      28.978 -16.015  40.626  1.00  0.00    +0.000 F 
ATOM     48  C35 UNL A   1      27.636 -16.182  38.690  1.00  0.00    +0.000 C 
ATOM     49  F4  UNL A   1      27.077 -17.306  39.159  1.00  0.00    +0.000 F 
ATOM     50  C36 UNL A   1      27.247 -15.677  37.451  1.00  0.00    +0.000 C 
ATOM     51  F5  UNL A   1      26.322 -16.346  36.745  1.00  0.00    +0.000 F 
ENDBRANCH   40   41
BRANCH   57   58
ATOM     65  C46 UNL A   1      20.007 -10.213  35.081  1.00  0.00    +0.000 C 
ATOM     66  F9  UNL A   1      18.791 -10.771  35.000  1.00  0.00    +0.000 F 
ATOM     67  C47 UNL A   1      21.115 -10.885  34.574  1.00  0.00    +0.000 C 
ATOM     68  F10 UNL A   1      20.938 -12.096  34.024  1.00  0.00    +0.000 F 
ATOM     58  C42 UNL A   1      22.395 -10.310  34.622  1.00  0.00    +0.000 C 
ATOM     59  C43 UNL A   1      22.521  -9.039  35.201  1.00  0.00    +0.000 C 
ATOM     60  F6  UNL A   1      23.724  -8.451  35.286  1.00  0.00    +0.000 F 
ATOM     61  C44 UNL A   1      21.416  -8.385  35.741  1.00  0.00    +0.000 C 
ATOM     62  F7  UNL A   1      21.571  -7.197  36.342  1.00  0.00    +0.000 F 
ATOM     63  C45 UNL A   1      20.160  -8.969  35.673  1.00  0.00    +0.000 C 
ATOM     64  F8  UNL A   1      19.097  -8.335  36.188  1.00  0.00    +0.000 F 
ENDBRANCH   57   58
BRANCH   72   73
ATOM     73  C51 UNL A   1      24.875 -10.796  28.130  1.00  0.00    +0.000 C 
ATOM     74  C52 UNL A   1      23.793 -11.389  27.464  1.00  0.00    +0.000 C 
ATOM     75  F11 UNL A   1      23.152 -12.428  28.020  1.00  0.00    +0.000 F 
ATOM     76  C53 UNL A   1      23.403 -10.958  26.198  1.00  0.00    +0.000 C 
ATOM     77  F12 UNL A   1      22.413 -11.591  25.554  1.00  0.00    +0.000 F 
ATOM     78  C54 UNL A   1      24.057  -9.898  25.591  1.00  0.00    +0.000 C 
ATOM     79  F13 UNL A   1      23.687  -9.489  24.369  1.00  0.00    +0.000 F 
ATOM     80  C55 UNL A   1      25.107  -9.272  26.246  1.00  0.00    +0.000 C 
ATOM     81  F14 UNL A   1      25.733  -8.235  25.671  1.00  0.00    +0.000 F 
ATOM     82  C56 UNL A   1      25.521  -9.725  27.496  1.00  0.00    +0.000 C 
ATOM     83  F15 UNL A   1      26.557  -9.116  28.091  1.00  0.00    +0.000 F 
ENDBRANCH   72   73
TORSDOF 19
ENDMDL
MODEL 5
REMARK VINA RESULT:      -8.2     33.751     39.326
ROOT
ATOM    129  H31 UNL A   1      26.785 -12.617  31.652  1.00  0.00    +0.000 H 
ATOM    130  H32 UNL A   1      22.995 -10.029  29.614  1.00  0.00    +0.000 H 
ATOM    131  H33 UNL A   1      22.129  -9.680  31.996  1.00  0.00    +0.000 H 
ATOM    132  H34 UNL A   1      29.487 -15.473  35.626  1.00  0.00    +0.000 H 
ATOM    133  H35 UNL A   1      30.656 -15.408  33.348  1.00  0.00    +0.000 H 
ATOM     36  C27 UNL A   1      29.146 -14.083  31.321  1.00  0.00    +0.000 C 
ATOM     37  C28 UNL A   1      28.816 -14.207  32.783  1.00  0.00    +0.000 C 
ATOM     38  N4  UNL A   1      27.783 -13.743  33.440  1.00  0.00    +0.000 N 
ATOM     39  C29 UNL A   1      27.954 -14.157  34.755  1.00  0.00    +0.000 C 
ATOM     40  C30 UNL A   1      27.197 -13.859  35.837  1.00  0.00    +0.000 C 
ATOM     52  C37 UNL A   1      26.011 -13.044  35.798  1.00  0.00    +0.000 C 
ATOM     53  C38 UNL A   1      25.191 -12.662  36.844  1.00  0.00    +0.000 C 
ATOM     54  C39 UNL A   1      24.133 -11.911  36.321  1.00  0.00    +0.000 C 
ATOM     55  C40 UNL A   1      24.328 -11.773  34.957  1.00  0.00    +0.000 C 
ATOM     56  N5  UNL A   1      25.478 -12.482  34.646  1.00  0.00    +0.000 N 
ATOM     57  C41 UNL A   1      23.525 -11.048  34.007  1.00  0.00    +0.000 C 
ATOM     69  C48 UNL A   1      23.783 -10.961  32.679  1.00  0.00    +0.000 C 
ATOM     70  N6  UNL A   1      24.829 -11.514  31.952  1.00  0.00    +0.000 N 
ATOM     71  C49 UNL A   1      24.624 -11.167  30.704  1.00  0.00    +0.000 C 
ATOM     72  C50 UNL A   1      25.460 -11.457  29.485  1.00  0.00    +0.000 C 
ATOM     84  C57 UNL A   1      26.602 -12.156  29.629  1.00  0.00    +0.000 C 
ATOM     85  C58 UNL A   1      27.522 -12.503  28.552  1.00  0.00    +0.000 C 
ATOM     86  C59 UNL A   1      28.517 -13.251  29.052  1.00  0.00    +0.000 C 
ATOM     87  C60 UNL A   1      28.329 -13.400  30.496  1.00  0.00    +0.000 C 
ATOM     88  N7  UNL A   1      27.171 -12.708  30.751  1.00  0.00    +0.000 N 
ATOM     89  C61 UNL A   1      23.402 -10.378  30.496  1.00  0.00    +0.000 C 
ATOM     90  C62 UNL A   1      22.957 -10.236  31.735  1.00  0.00    +0.000 C 
ATOM     91  C63 UNL A   1      29.151 -14.968  34.792  1.00  0.00    +0.000 C 
ATOM     92  C64 UNL A   1      29.757 -14.975  33.614  1.00  0.00    +0.000 C 
ATOM    124  H26 UNL A   1      25.335 -12.891  37.841  1.00  0.00    +0.000 H 
ATOM    125  H27 UNL A   1      23.343 -11.526  36.860  1.00  0.00    +0.000 H 
ATOM    126  H28 UNL A   1      25.859 -12.575  33.744  1.00  0.00    +0.000 H 
ATOM    127  H29 UNL A   1      27.423 -12.221  27.564  1.00  0.00    +0.000 H 
ATOM    128  H30 UNL A   1      29.293 -13.657  28.505  1.00  0.00    +0.000 H 
ENDROOT
BRANCH   36   35
ATOM     33  C24 UNL A   1      31.403 -16.636  29.653  1.00  0.00    +0.000 C 
ATOM     34  C25 UNL A   1      30.255 -15.986  30.110  1.00  0.00    +0.000 C 
ATOM     35  C26 UNL A   1      30.352 -14.748  30.766  1.00  0.00    +0.000 C 
ATOM    134  H36 UNL A   1      31.691 -13.232  31.386  1.00  0.00    +0.000 H 
ATOM    135  H37 UNL A   1      33.649 -14.259  30.395  1.00  0.00    +0.000 H 
ATOM    122  H24 UNL A   1      31.331 -17.561  29.203  1.00  0.00    +0.000 H 
ATOM    123  H25 UNL A   1      29.329 -16.417  29.963  1.00  0.00    +0.000 H 
ATOM     93  C65 UNL A   1      31.607 -14.138  30.897  1.00  0.00    +0.000 C 
ATOM     94  C66 UNL A   1      32.742 -14.748  30.371  1.00  0.00    +0.000 C 
ATOM     32  C23 UNL A   1      32.649 -16.026  29.809  1.00  0.00    +0.000 C 
BRANCH   32   30
ATOM     30  C22 UNL A   1      33.858 -16.740  29.346  1.00  0.00    +0.000 C 
ATOM     31  O4  UNL A   1      34.602 -17.277  30.160  1.00  0.00    +0.000 O 
BRANCH   30   29
ATOM    121  H23 UNL A   1      33.476 -16.391  27.409  1.00  0.00    +0.000 H 
ATOM     29  N3  UNL A   1      34.139 -16.806  28.006  1.00  0.00    +0.000 N 
BRANCH   29   28
ATOM     28  C21 UNL A   1      35.290 -17.408  27.348  1.00  0.00    +0.000 C 
ATOM    119  H21 UNL A   1      36.133 -17.355  28.006  1.00  0.00    +0.000 H 
ATOM    120  H22 UNL A   1      35.048 -18.424  27.116  1.00  0.00    +0.000 H 
BRANCH   28   27
ATOM     27  C20 UNL A   1      35.634 -16.691  26.047  1.00  0.00    +0.000 C 
ATOM    117  H19 UNL A   1      35.010 -17.084  25.271  1.00  0.00    +0.000 H 
ATOM    118  H20 UNL A   1      35.474 -15.647  26.217  1.00  0.00    +0.000 H 
BRANCH   27   26
ATOM     26  C19 UNL A   1      37.094 -16.851  25.615  1.00  0.00    +0.000 C 
ATOM    115  H17 UNL A   1      37.718 -16.549  26.430  1.00  0.00    +0.000 H 
ATOM    116  H18 UNL A   1      37.219 -17.879  25.346  1.00  0.00    +0.000 H 
BRANCH   26   25
ATOM     25  C18 UNL A   1      37.494 -16.031  24.379  1.00  0.00    +0.000 C 
ATOM    114  H16 UNL A   1      36.656 -15.407  24.147  1.00  0.00    +0.000 H 
ATOM    113  H15 UNL A   1      37.742 -16.713  23.593  1.00  0.00    +0.000 H 
BRANCH   25   24
ATOM    112  H14 UNL A   1      39.574 -15.692  24.596  1.00  0.00    +0.000 H 
ATOM    111  H13 UNL A   1      38.554 -14.572  25.517  1.00  0.00    +0.000 H 
ATOM     24  C17 UNL A   1      38.689 -15.090  24.592  1.00  0.00    +0.000 C 
BRANCH   24   23
ATOM    109  H11 UNL A   1      39.286 -13.167  23.872  1.00  0.00    +0.000 H 
ATOM    110  H12 UNL A   1      39.474 -14.463  22.708  1.00  0.00    +0.000 H 
ATOM     23  C16 UNL A   1      38.846 -14.056  23.473  1.00  0.00    +0.000 C 
BRANCH   23   22
ATOM    108  H10 UNL A   1      37.133 -14.505  22.453  1.00  0.00    +0.000 H 
ATOM     22  N2  UNL A   1      37.554 -13.738  22.903  1.00  0.00    +0.000 N 
BRANCH   22   20
ATOM     20  C15 UNL A   1      36.784 -12.599  22.850  1.00  0.00    +0.000 C 
ATOM     21  O3  UNL A   1      36.875 -11.944  21.808  1.00  0.00    +0.000 O 
BRANCH   20   19
ATOM    136  H38 UNL A   1      33.461  -9.958  24.226  1.00  0.00    +0.000 H 
ATOM    106  H8  UNL A   1      35.363 -12.081  27.258  1.00  0.00    +0.000 H 
ATOM    107  H9  UNL A   1      36.651 -13.259  25.566  1.00  0.00    +0.000 H 
ATOM     16  C11 UNL A   1      34.344 -10.841  25.891  1.00  0.00    +0.000 C 
ATOM     17  C12 UNL A   1      35.254 -11.833  26.263  1.00  0.00    +0.000 C 
ATOM     18  C13 UNL A   1      36.016 -12.492  25.298  1.00  0.00    +0.000 C 
ATOM     19  C14 UNL A   1      35.908 -12.100  23.972  1.00  0.00    +0.000 C 
ATOM     95  N8  UNL A   1      34.972 -11.188  23.581  1.00  0.00    +0.000 N 
ATOM     96  C67 UNL A   1      34.200 -10.610  24.532  1.00  0.00    +0.000 C 
BRANCH   16   15
ATOM    104  H6  UNL A   1      30.735  -9.624  28.506  1.00  0.00    +0.000 H 
ATOM      9  C6  UNL A   1      32.333 -10.369  27.334  1.00  0.00    +0.000 C 
ATOM     10  C7  UNL A   1      31.694  -9.443  28.174  1.00  0.00    +0.000 C 
ATOM     11  C8  UNL A   1      32.355  -8.280  28.557  1.00  0.00    +0.000 C 
ATOM     12 Cl1  UNL A   1      31.570  -7.117  29.545  1.00  0.00    +0.000 Cl
ATOM     13  C9  UNL A   1      33.650  -8.076  28.114  1.00  0.00    +0.000 C 
ATOM     14  N1  UNL A   1      34.309  -8.931  27.298  1.00  0.00    +0.000 N 
ATOM     15  C10 UNL A   1      33.642 -10.045  26.900  1.00  0.00    +0.000 C 
ATOM    105  H7  UNL A   1      34.142  -7.223  28.423  1.00  0.00    +0.000 H 
BRANCH    9    8
ATOM     97  C68 UNL A   1      30.665 -11.566  25.895  1.00  0.00    +0.000 C 
ATOM     98  C69 UNL A   1      30.091 -12.744  25.405  1.00  0.00    +0.000 C 
ATOM      5  C2  UNL A   1      30.485 -13.973  25.933  1.00  0.00    +0.000 C 
ATOM    102  H4  UNL A   1      31.727 -14.950  27.335  1.00  0.00    +0.000 H 
ATOM      6  C3  UNL A   1      31.435 -14.038  26.951  1.00  0.00    +0.000 C 
ATOM      7  C4  UNL A   1      31.991 -12.855  27.446  1.00  0.00    +0.000 C 
ATOM    103  H5  UNL A   1      32.671 -12.901  28.221  1.00  0.00    +0.000 H 
ATOM    138  H40 UNL A   1      29.380 -12.703  24.658  1.00  0.00    +0.000 H 
ATOM      8  C5  UNL A   1      31.639 -11.602  26.907  1.00  0.00    +0.000 C 
ATOM    137  H39 UNL A   1      30.369 -10.657  25.507  1.00  0.00    +0.000 H 
BRANCH    5    2
ATOM      2  S1  UNL A   1      29.826 -15.483  25.266  1.00  0.00    +0.000 S 
ATOM      3  O1  UNL A   1      29.814 -15.338  23.821  1.00  0.00    +0.000 O 
ATOM      4  O2  UNL A   1      28.608 -15.788  25.990  1.00  0.00    +0.000 O 
BRANCH    2    1
ATOM      1  C1  UNL A   1      31.042 -16.698  25.704  1.00  0.00    +0.000 C 
ATOM     99  H1  UNL A   1      30.948 -16.939  26.742  1.00  0.00    +0.000 H 
ATOM    100  H2  UNL A   1      32.020 -16.308  25.515  1.00  0.00    +0.000 H 
ATOM    101  H3  UNL A   1      30.891 -17.581  25.118  1.00  0.00    +0.000 H 
ENDBRANCH    2    1
ENDBRANCH    5    2
ENDBRANCH    9    8
ENDBRANCH   16   15
ENDBRANCH   20   19
ENDBRANCH   22   20
ENDBRANCH   23   22
ENDBRANCH   24   23
ENDBRANCH   25   24
ENDBRANCH   26   25
ENDBRANCH   27   26
ENDBRANCH   28   27
ENDBRANCH   29   28
ENDBRANCH   30   29
ENDBRANCH   32   30
ENDBRANCH   36   35
BRANCH   40   41
ATOM     41  C31 UNL A   1      27.636 -14.404  37.168  1.00  0.00    +0.000 C 
ATOM     42  C32 UNL A   1      28.658 -13.788  37.908  1.00  0.00    +0.000 C 
ATOM     43  F1  UNL A   1      29.316 -12.735  37.403  1.00  0.00    +0.000 F 
ATOM     44  C33 UNL A   1      29.026 -14.272  39.160  1.00  0.00    +0.000 C 
ATOM     45  F2  UNL A   1      30.031 -13.691  39.831  1.00  0.00    +0.000 F 
ATOM     46  C34 UNL A   1      28.359 -15.354  39.712  1.00  0.00    +0.000 C 
ATOM     47  F3  UNL A   1      28.704 -15.808  40.926  1.00  0.00    +0.000 F 
ATOM     48  C35 UNL A   1      27.338 -15.970  39.005  1.00  0.00    +0.000 C 
ATOM     49  F4  UNL A   1      26.682 -17.007  39.544  1.00  0.00    +0.000 F 
ATOM     50  C36 UNL A   1      26.988 -15.509  37.738  1.00  0.00    +0.000 C 
ATOM     51  F5  UNL A   1      26.001 -16.132  37.076  1.00  0.00    +0.000 F 
ENDBRANCH   40   41
BRANCH   57   58
ATOM     65  C46 UNL A   1      21.377  -8.366  35.643  1.00  0.00    +0.000 C 
ATOM     66  F9  UNL A   1      21.548  -7.180  36.244  1.00  0.00    +0.000 F 
ATOM     67  C47 UNL A   1      22.474  -9.052  35.133  1.00  0.00    +0.000 C 
ATOM     68  F10 UNL A   1      23.689  -8.494  35.242  1.00  0.00    +0.000 F 
ATOM     58  C42 UNL A   1      22.325 -10.308  34.524  1.00  0.00    +0.000 C 
ATOM     59  C43 UNL A   1      21.032 -10.847  34.445  1.00  0.00    +0.000 C 
ATOM     60  F6  UNL A   1      20.832 -12.038  33.859  1.00  0.00    +0.000 F 
ATOM     61  C44 UNL A   1      19.931 -10.142  34.923  1.00  0.00    +0.000 C 
ATOM     62  F7  UNL A   1      18.699 -10.652  34.782  1.00  0.00    +0.000 F 
ATOM     63  C45 UNL A   1      20.105  -8.907  35.529  1.00  0.00    +0.000 C 
ATOM     64  F8  UNL A   1      19.044  -8.233  35.995  1.00  0.00    +0.000 F 
ENDBRANCH   57   58
BRANCH   72   73
ATOM     73  C51 UNL A   1      25.034 -10.980  28.141  1.00  0.00    +0.000 C 
ATOM     74  C52 UNL A   1      25.599  -9.833  27.566  1.00  0.00    +0.000 C 
ATOM     75  F11 UNL A   1      26.555  -9.157  28.220  1.00  0.00    +0.000 F 
ATOM     76  C53 UNL A   1      25.143  -9.340  26.345  1.00  0.00    +0.000 C 
ATOM     77  F12 UNL A   1      25.652  -8.202  25.855  1.00  0.00    +0.000 F 
ATOM     78  C54 UNL A   1      24.144 -10.007  25.654  1.00  0.00    +0.000 C 
ATOM     79  F13 UNL A   1      23.700  -9.528  24.484  1.00  0.00    +0.000 F 
ATOM     80  C55 UNL A   1      23.596 -11.165  26.185  1.00  0.00    +0.000 C 
ATOM     81  F14 UNL A   1      22.641 -11.823  25.513  1.00  0.00    +0.000 F 
ATOM     82  C56 UNL A   1      24.025 -11.638  27.423  1.00  0.00    +0.000 C 
ATOM     83  F15 UNL A   1      23.454 -12.744  27.923  1.00  0.00    +0.000 F 
ENDBRANCH   72   73
TORSDOF 19
ENDMDL
MODEL 6
REMARK VINA RESULT:      -8.1     34.741     40.742
ROOT
ATOM    129  H31 UNL A   1      15.790  51.400   2.038  1.00  0.00    +0.000 H 
ATOM    130  H32 UNL A   1      15.015  46.579   0.865  1.00  0.00    +0.000 H 
ATOM    131  H33 UNL A   1      13.227  46.560   2.696  1.00  0.00    +0.000 H 
ATOM    132  H34 UNL A   1      15.534  56.013   5.184  1.00  0.00    +0.000 H 
ATOM    133  H35 UNL A   1      16.939  56.226   3.054  1.00  0.00    +0.000 H 
ATOM     36  C27 UNL A   1      17.170  53.792   1.583  1.00  0.00    +0.000 C 
ATOM     37  C28 UNL A   1      16.338  54.052   2.808  1.00  0.00    +0.000 C 
ATOM     38  N4  UNL A   1      15.548  53.237   3.461  1.00  0.00    +0.000 N 
ATOM     39  C29 UNL A   1      15.041  53.972   4.524  1.00  0.00    +0.000 C 
ATOM     40  C30 UNL A   1      14.116  53.601   5.441  1.00  0.00    +0.000 C 
ATOM     52  C37 UNL A   1      13.492  52.305   5.482  1.00  0.00    +0.000 C 
ATOM     53  C38 UNL A   1      12.523  51.841   6.354  1.00  0.00    +0.000 C 
ATOM     54  C39 UNL A   1      12.255  50.504   6.042  1.00  0.00    +0.000 C 
ATOM     55  C40 UNL A   1      13.013  50.153   4.937  1.00  0.00    +0.000 C 
ATOM     56  N5  UNL A   1      13.776  51.264   4.610  1.00  0.00    +0.000 N 
ATOM     57  C41 UNL A   1      13.039  48.898   4.231  1.00  0.00    +0.000 C 
ATOM     69  C48 UNL A   1      13.814  48.631   3.151  1.00  0.00    +0.000 C 
ATOM     70  N6  UNL A   1      14.717  49.457   2.496  1.00  0.00    +0.000 N 
ATOM     71  C49 UNL A   1      15.233  48.734   1.531  1.00  0.00    +0.000 C 
ATOM     72  C50 UNL A   1      16.240  49.125   0.481  1.00  0.00    +0.000 C 
ATOM     84  C57 UNL A   1      16.707  50.388   0.465  1.00  0.00    +0.000 C 
ATOM     85  C58 UNL A   1      17.670  50.920  -0.492  1.00  0.00    +0.000 C 
ATOM     86  C59 UNL A   1      17.949  52.193  -0.170  1.00  0.00    +0.000 C 
ATOM     87  C60 UNL A   1      17.149  52.581   0.993  1.00  0.00    +0.000 C 
ATOM     88  N7  UNL A   1      16.436  51.448   1.296  1.00  0.00    +0.000 N 
ATOM     89  C61 UNL A   1      14.735  47.352   1.488  1.00  0.00    +0.000 C 
ATOM     90  C62 UNL A   1      13.836  47.359   2.461  1.00  0.00    +0.000 C 
ATOM     91  C63 UNL A   1      15.664  55.277   4.473  1.00  0.00    +0.000 C 
ATOM     92  C64 UNL A   1      16.423  55.400   3.394  1.00  0.00    +0.000 C 
ATOM    124  H26 UNL A   1      12.073  52.388   7.106  1.00  0.00    +0.000 H 
ATOM    125  H27 UNL A   1      11.605  49.885   6.549  1.00  0.00    +0.000 H 
ATOM    126  H28 UNL A   1      14.423  51.308   3.870  1.00  0.00    +0.000 H 
ATOM    127  H29 UNL A   1      18.073  50.402  -1.289  1.00  0.00    +0.000 H 
ATOM    128  H30 UNL A   1      18.620  52.802  -0.664  1.00  0.00    +0.000 H 
ENDROOT
BRANCH   36   35
ATOM     33  C24 UNL A   1      19.932  56.376   1.284  1.00  0.00    +0.000 C 
ATOM     34  C25 UNL A   1      19.149  55.329   1.775  1.00  0.00    +0.000 C 
ATOM     35  C26 UNL A   1      18.053  54.853   1.037  1.00  0.00    +0.000 C 
ATOM    134  H36 UNL A   1      16.986  55.055  -0.778  1.00  0.00    +0.000 H 
ATOM    135  H37 UNL A   1      18.481  56.714  -1.720  1.00  0.00    +0.000 H 
ATOM    122  H24 UNL A   1      20.714  56.746   1.845  1.00  0.00    +0.000 H 
ATOM    123  H25 UNL A   1      19.377  54.903   2.687  1.00  0.00    +0.000 H 
ATOM     93  C65 UNL A   1      17.795  55.392  -0.231  1.00  0.00    +0.000 C 
ATOM     94  C66 UNL A   1      18.623  56.379  -0.755  1.00  0.00    +0.000 C 
ATOM     32  C23 UNL A   1      19.650  56.917   0.028  1.00  0.00    +0.000 C 
BRANCH   32   30
ATOM     30  C22 UNL A   1      20.471  58.043  -0.465  1.00  0.00    +0.000 C 
ATOM     31  O4  UNL A   1      20.019  58.803  -1.316  1.00  0.00    +0.000 O 
BRANCH   30   29
ATOM    121  H23 UNL A   1      21.829  58.982   0.671  1.00  0.00    +0.000 H 
ATOM     29  N3  UNL A   1      21.732  58.238   0.034  1.00  0.00    +0.000 N 
BRANCH   29   28
ATOM     28  C21 UNL A   1      22.948  57.490  -0.252  1.00  0.00    +0.000 C 
ATOM    119  H21 UNL A   1      23.488  57.344   0.661  1.00  0.00    +0.000 H 
ATOM    120  H22 UNL A   1      22.669  56.553  -0.685  1.00  0.00    +0.000 H 
BRANCH   28   27
ATOM     27  C20 UNL A   1      23.843  58.227  -1.243  1.00  0.00    +0.000 C 
ATOM    117  H19 UNL A   1      23.590  59.266  -1.217  1.00  0.00    +0.000 H 
ATOM    118  H20 UNL A   1      24.853  58.040  -0.945  1.00  0.00    +0.000 H 
BRANCH   27   26
ATOM     26  C19 UNL A   1      23.709  57.736  -2.687  1.00  0.00    +0.000 C 
ATOM    115  H17 UNL A   1      23.191  58.485  -3.248  1.00  0.00    +0.000 H 
ATOM    116  H18 UNL A   1      24.704  57.558  -3.039  1.00  0.00    +0.000 H 
BRANCH   26   25
ATOM     25  C18 UNL A   1      22.951  56.410  -2.849  1.00  0.00    +0.000 C 
ATOM    114  H16 UNL A   1      22.378  56.279  -1.956  1.00  0.00    +0.000 H 
ATOM    113  H15 UNL A   1      23.670  55.633  -3.007  1.00  0.00    +0.000 H 
BRANCH   25   24
ATOM    112  H14 UNL A   1      21.820  57.388  -4.350  1.00  0.00    +0.000 H 
ATOM    111  H13 UNL A   1      21.035  55.953  -3.667  1.00  0.00    +0.000 H 
ATOM     24  C17 UNL A   1      21.951  56.381  -4.014  1.00  0.00    +0.000 C 
BRANCH   24   23
ATOM    109  H11 UNL A   1      23.228  56.100  -5.707  1.00  0.00    +0.000 H 
ATOM    110  H12 UNL A   1      22.815  54.621  -4.861  1.00  0.00    +0.000 H 
ATOM     23  C16 UNL A   1      22.447  55.563  -5.211  1.00  0.00    +0.000 C 
BRANCH   23   22
ATOM    108  H10 UNL A   1      21.664  54.950  -6.996  1.00  0.00    +0.000 H 
ATOM     22  N2  UNL A   1      21.361  55.329  -6.140  1.00  0.00    +0.000 N 
BRANCH   22   20
ATOM     20  C15 UNL A   1      19.999  55.521  -6.090  1.00  0.00    +0.000 C 
ATOM     21  O3  UNL A   1      19.579  56.506  -6.703  1.00  0.00    +0.000 O 
BRANCH   20   19
ATOM    136  H38 UNL A   1      15.822  54.108  -5.411  1.00  0.00    +0.000 H 
ATOM    106  H8  UNL A   1      18.614  52.649  -2.691  1.00  0.00    +0.000 H 
ATOM    107  H9  UNL A   1      20.374  53.696  -4.003  1.00  0.00    +0.000 H 
ATOM     16  C11 UNL A   1      17.034  53.358  -3.894  1.00  0.00    +0.000 C 
ATOM     17  C12 UNL A   1      18.372  53.217  -3.518  1.00  0.00    +0.000 C 
ATOM     18  C13 UNL A   1      19.383  53.840  -4.250  1.00  0.00    +0.000 C 
ATOM     19  C14 UNL A   1      19.036  54.655  -5.317  1.00  0.00    +0.000 C 
ATOM     95  N8  UNL A   1      17.745  54.744  -5.746  1.00  0.00    +0.000 N 
ATOM     96  C67 UNL A   1      16.790  54.078  -5.053  1.00  0.00    +0.000 C 
BRANCH   16   15
ATOM    104  H6  UNL A   1      13.782  50.312  -2.673  1.00  0.00    +0.000 H 
ATOM      9  C6  UNL A   1      15.384  51.554  -3.286  1.00  0.00    +0.000 C 
ATOM     10  C7  UNL A   1      14.245  51.223  -2.534  1.00  0.00    +0.000 C 
ATOM     11  C8  UNL A   1      13.742  52.125  -1.601  1.00  0.00    +0.000 C 
ATOM     12 Cl1  UNL A   1      12.324  51.753  -0.708  1.00  0.00    +0.000 Cl
ATOM     13  C9  UNL A   1      14.399  53.329  -1.421  1.00  0.00    +0.000 C 
ATOM     14  N1  UNL A   1      15.493  53.701  -2.124  1.00  0.00    +0.000 N 
ATOM     15  C10 UNL A   1      15.955  52.830  -3.058  1.00  0.00    +0.000 C 
ATOM    105  H7  UNL A   1      14.033  53.981  -0.710  1.00  0.00    +0.000 H 
BRANCH    9    8
ATOM     97  C68 UNL A   1      17.195  50.039  -4.129  1.00  0.00    +0.000 C 
ATOM     98  C69 UNL A   1      17.661  49.059  -5.012  1.00  0.00    +0.000 C 
ATOM      5  C2  UNL A   1      16.855  48.650  -6.074  1.00  0.00    +0.000 C 
ATOM    102  H4  UNL A   1      15.001  48.908  -7.055  1.00  0.00    +0.000 H 
ATOM      6  C3  UNL A   1      15.596  49.216  -6.270  1.00  0.00    +0.000 C 
ATOM      7  C4  UNL A   1      15.146  50.207  -5.393  1.00  0.00    +0.000 C 
ATOM    103  H5  UNL A   1      14.227  50.648  -5.556  1.00  0.00    +0.000 H 
ATOM    138  H40 UNL A   1      18.596  48.642  -4.878  1.00  0.00    +0.000 H 
ATOM      8  C5  UNL A   1      15.923  50.613  -4.290  1.00  0.00    +0.000 C 
ATOM    137  H39 UNL A   1      17.794  50.343  -3.346  1.00  0.00    +0.000 H 
BRANCH    5    2
ATOM      2  S1  UNL A   1      17.398  47.350  -7.158  1.00  0.00    +0.000 S 
ATOM      3  O1  UNL A   1      17.649  46.185  -6.327  1.00  0.00    +0.000 O 
ATOM      4  O2  UNL A   1      18.438  47.892  -8.007  1.00  0.00    +0.000 O 
BRANCH    2    1
ATOM      1  C1  UNL A   1      15.976  47.029  -8.168  1.00  0.00    +0.000 C 
ATOM     99  H1  UNL A   1      15.920  45.983  -8.383  1.00  0.00    +0.000 H 
ATOM    100  H2  UNL A   1      16.058  47.577  -9.083  1.00  0.00    +0.000 H 
ATOM    101  H3  UNL A   1      15.092  47.334  -7.648  1.00  0.00    +0.000 H 
ENDBRANCH    2    1
ENDBRANCH    5    2
ENDBRANCH    9    8
ENDBRANCH   16   15
ENDBRANCH   20   19
ENDBRANCH   22   20
ENDBRANCH   23   22
ENDBRANCH   24   23
ENDBRANCH   25   24
ENDBRANCH   26   25
ENDBRANCH   27   26
ENDBRANCH   28   27
ENDBRANCH   29   28
ENDBRANCH   30   29
ENDBRANCH   32   30
ENDBRANCH   36   35
BRANCH   40   41
ATOM     41  C31 UNL A   1      13.704  54.617   6.469  1.00  0.00    +0.000 C 
ATOM     42  C32 UNL A   1      12.810  55.653   6.156  1.00  0.00    +0.000 C 
ATOM     43  F1  UNL A   1      12.358  55.799   4.902  1.00  0.00    +0.000 F 
ATOM     44  C33 UNL A   1      12.398  56.562   7.126  1.00  0.00    +0.000 C 
ATOM     45  F2  UNL A   1      11.574  57.566   6.794  1.00  0.00    +0.000 F 
ATOM     46  C34 UNL A   1      12.842  56.433   8.433  1.00  0.00    +0.000 C 
ATOM     47  F3  UNL A   1      12.430  57.299   9.370  1.00  0.00    +0.000 F 
ATOM     48  C35 UNL A   1      13.715  55.410   8.769  1.00  0.00    +0.000 C 
ATOM     49  F4  UNL A   1      14.133  55.275  10.035  1.00  0.00    +0.000 F 
ATOM     50  C36 UNL A   1      14.155  54.518   7.793  1.00  0.00    +0.000 C 
ATOM     51  F5  UNL A   1      15.006  53.544   8.149  1.00  0.00    +0.000 F 
ENDBRANCH   40   41
BRANCH   57   58
ATOM     65  C46 UNL A   1       9.941  46.729   4.654  1.00  0.00    +0.000 C 
ATOM     66  F9  UNL A   1       8.688  46.676   4.180  1.00  0.00    +0.000 F 
ATOM     67  C47 UNL A   1      10.813  47.715   4.204  1.00  0.00    +0.000 C 
ATOM     68  F10 UNL A   1      10.378  48.588   3.283  1.00  0.00    +0.000 F 
ATOM     58  C42 UNL A   1      12.121  47.808   4.705  1.00  0.00    +0.000 C 
ATOM     59  C43 UNL A   1      12.520  46.874   5.672  1.00  0.00    +0.000 C 
ATOM     60  F6  UNL A   1      13.765  46.910   6.173  1.00  0.00    +0.000 F 
ATOM     61  C44 UNL A   1      11.657  45.866   6.094  1.00  0.00    +0.000 C 
ATOM     62  F7  UNL A   1      12.081  44.949   6.975  1.00  0.00    +0.000 F 
ATOM     63  C45 UNL A   1      10.366  45.800   5.590  1.00  0.00    +0.000 C 
ATOM     64  F8  UNL A   1       9.535  44.832   6.003  1.00  0.00    +0.000 F 
ENDBRANCH   57   58
BRANCH   72   73
ATOM     73  C51 UNL A   1      16.712  48.135  -0.524  1.00  0.00    +0.000 C 
ATOM     74  C52 UNL A   1      17.992  47.568  -0.439  1.00  0.00    +0.000 C 
ATOM     75  F11 UNL A   1      18.806  47.903   0.573  1.00  0.00    +0.000 F 
ATOM     76  C53 UNL A   1      18.464  46.705  -1.424  1.00  0.00    +0.000 C 
ATOM     77  F12 UNL A   1      19.718  46.236  -1.355  1.00  0.00    +0.000 F 
ATOM     78  C54 UNL A   1      17.652  46.355  -2.492  1.00  0.00    +0.000 C 
ATOM     79  F13 UNL A   1      18.110  45.530  -3.444  1.00  0.00    +0.000 F 
ATOM     80  C55 UNL A   1      16.369  46.873  -2.578  1.00  0.00    +0.000 C 
ATOM     81  F14 UNL A   1      15.573  46.525  -3.599  1.00  0.00    +0.000 F 
ATOM     82  C56 UNL A   1      15.909  47.765  -1.613  1.00  0.00    +0.000 C 
ATOM     83  F15 UNL A   1      14.673  48.271  -1.740  1.00  0.00    +0.000 F 
ENDBRANCH   72   73
TORSDOF 19
ENDMDL
MODEL 7
REMARK VINA RESULT:      -8.1     29.796     35.977
ROOT
ATOM    129  H31 UNL A   1      40.649  29.609  32.850  1.00  0.00    +0.000 H 
ATOM    130  H32 UNL A   1      37.136  32.995  34.034  1.00  0.00    +0.000 H 
ATOM    131  H33 UNL A   1      36.226  32.683  31.663  1.00  0.00    +0.000 H 
ATOM    132  H34 UNL A   1      43.797  26.458  29.471  1.00  0.00    +0.000 H 
ATOM    133  H35 UNL A   1      44.420  26.348  31.953  1.00  0.00    +0.000 H 
ATOM     36  C27 UNL A   1      42.889  28.106  33.599  1.00  0.00    +0.000 C 
ATOM     37  C28 UNL A   1      42.716  27.836  32.130  1.00  0.00    +0.000 C 
ATOM     38  N4  UNL A   1      41.841  28.335  31.294  1.00  0.00    +0.000 N 
ATOM     39  C29 UNL A   1      42.132  27.771  30.059  1.00  0.00    +0.000 C 
ATOM     40  C30 UNL A   1      41.461  27.906  28.891  1.00  0.00    +0.000 C 
ATOM     52  C37 UNL A   1      40.286  28.721  28.721  1.00  0.00    +0.000 C 
ATOM     53  C38 UNL A   1      39.518  28.901  27.584  1.00  0.00    +0.000 C 
ATOM     54  C39 UNL A   1      38.506  29.820  27.881  1.00  0.00    +0.000 C 
ATOM     55  C40 UNL A   1      38.606  30.165  29.218  1.00  0.00    +0.000 C 
ATOM     56  N5  UNL A   1      39.710  29.492  29.720  1.00  0.00    +0.000 N 
ATOM     57  C41 UNL A   1      37.758  31.043  29.983  1.00  0.00    +0.000 C 
ATOM     69  C48 UNL A   1      37.924  31.332  31.297  1.00  0.00    +0.000 C 
ATOM     70  N6  UNL A   1      38.894  30.874  32.178  1.00  0.00    +0.000 N 
ATOM     71  C49 UNL A   1      38.645  31.461  33.325  1.00  0.00    +0.000 C 
ATOM     72  C50 UNL A   1      39.354  31.310  34.645  1.00  0.00    +0.000 C 
ATOM     84  C57 UNL A   1      40.392  30.457  34.735  1.00  0.00    +0.000 C 
ATOM     85  C58 UNL A   1      41.168  30.193  35.941  1.00  0.00    +0.000 C 
ATOM     86  C59 UNL A   1      42.158  29.337  35.645  1.00  0.00    +0.000 C 
ATOM     87  C60 UNL A   1      42.060  28.957  34.235  1.00  0.00    +0.000 C 
ATOM     88  N7  UNL A   1      40.977  29.664  33.777  1.00  0.00    +0.000 N 
ATOM     89  C61 UNL A   1      37.502  32.383  33.288  1.00  0.00    +0.000 C 
ATOM     90  C62 UNL A   1      37.068  32.227  32.047  1.00  0.00    +0.000 C 
ATOM     91  C63 UNL A   1      43.306  26.946  30.237  1.00  0.00    +0.000 C 
ATOM     92  C64 UNL A   1      43.667  26.899  31.510  1.00  0.00    +0.000 C 
ATOM    124  H26 UNL A   1      39.666  28.437  26.674  1.00  0.00    +0.000 H 
ATOM    125  H27 UNL A   1      37.803  30.179  27.216  1.00  0.00    +0.000 H 
ATOM    126  H28 UNL A   1      40.037  29.553  30.646  1.00  0.00    +0.000 H 
ATOM    127  H29 UNL A   1      40.986  30.599  36.872  1.00  0.00    +0.000 H 
ATOM    128  H30 UNL A   1      42.875  29.000  36.307  1.00  0.00    +0.000 H 
ENDROOT
BRANCH   36   35
ATOM     33  C24 UNL A   1      46.300  27.482  35.137  1.00  0.00    +0.000 C 
ATOM     34  C25 UNL A   1      45.240  28.117  34.487  1.00  0.00    +0.000 C 
ATOM     35  C26 UNL A   1      44.000  27.472  34.352  1.00  0.00    +0.000 C 
ATOM    134  H36 UNL A   1      42.910  25.725  34.836  1.00  0.00    +0.000 H 
ATOM    135  H37 UNL A   1      44.683  24.726  36.153  1.00  0.00    +0.000 H 
ATOM    122  H24 UNL A   1      47.220  27.945  35.203  1.00  0.00    +0.000 H 
ATOM    123  H25 UNL A   1      45.369  29.066  34.104  1.00  0.00    +0.000 H 
ATOM     93  C65 UNL A   1      43.815  26.211  34.937  1.00  0.00    +0.000 C 
ATOM     94  C66 UNL A   1      44.847  25.613  35.654  1.00  0.00    +0.000 C 
ATOM     32  C23 UNL A   1      46.108  26.218  35.697  1.00  0.00    +0.000 C 
BRANCH   32   30
ATOM     30  C22 UNL A   1      47.248  25.547  36.357  1.00  0.00    +0.000 C 
ATOM     31  O4  UNL A   1      47.713  26.008  37.395  1.00  0.00    +0.000 O 
BRANCH   30   29
ATOM    121  H23 UNL A   1      48.133  23.751  36.451  1.00  0.00    +0.000 H 
ATOM     29  N3  UNL A   1      47.780  24.409  35.809  1.00  0.00    +0.000 N 
BRANCH   29   28
ATOM     28  C21 UNL A   1      47.891  24.042  34.405  1.00  0.00    +0.000 C 
ATOM    119  H21 UNL A   1      47.949  22.975  34.329  1.00  0.00    +0.000 H 
ATOM    120  H22 UNL A   1      47.029  24.416  33.893  1.00  0.00    +0.000 H 
BRANCH   28   27
ATOM     27  C20 UNL A   1      49.131  24.651  33.760  1.00  0.00    +0.000 C 
ATOM    117  H19 UNL A   1      49.859  24.821  34.525  1.00  0.00    +0.000 H 
ATOM    118  H20 UNL A   1      49.466  23.958  33.017  1.00  0.00    +0.000 H 
BRANCH   27   26
ATOM     26  C19 UNL A   1      48.871  25.978  33.041  1.00  0.00    +0.000 C 
ATOM    115  H17 UNL A   1      48.682  26.728  33.781  1.00  0.00    +0.000 H 
ATOM    116  H18 UNL A   1      49.742  26.178  32.451  1.00  0.00    +0.000 H 
BRANCH   26   25
ATOM     25  C18 UNL A   1      47.685  25.961  32.066  1.00  0.00    +0.000 C 
ATOM    114  H16 UNL A   1      46.826  25.685  32.641  1.00  0.00    +0.000 H 
ATOM    113  H15 UNL A   1      47.909  25.269  31.282  1.00  0.00    +0.000 H 
BRANCH   25   24
ATOM    112  H14 UNL A   1      47.988  28.051  31.891  1.00  0.00    +0.000 H 
ATOM    111  H13 UNL A   1      46.322  27.529  31.580  1.00  0.00    +0.000 H 
ATOM     24  C17 UNL A   1      47.360  27.319  31.427  1.00  0.00    +0.000 C 
BRANCH   24   23
ATOM    109  H11 UNL A   1      48.517  27.957  29.744  1.00  0.00    +0.000 H 
ATOM    110  H12 UNL A   1      47.812  26.361  29.573  1.00  0.00    +0.000 H 
ATOM     23  C16 UNL A   1      47.648  27.359  29.923  1.00  0.00    +0.000 C 
BRANCH   23   22
ATOM    108  H10 UNL A   1      45.854  27.254  28.950  1.00  0.00    +0.000 H 
ATOM     22  N2  UNL A   1      46.521  27.928  29.214  1.00  0.00    +0.000 N 
BRANCH   22   20
ATOM     20  C15 UNL A   1      46.176  29.203  28.827  1.00  0.00    +0.000 C 
ATOM     21  O3  UNL A   1      46.486  29.509  27.671  1.00  0.00    +0.000 O 
BRANCH   20   19
ATOM    136  H38 UNL A   1      46.489  32.149  32.163  1.00  0.00    +0.000 H 
ATOM    106  H8  UNL A   1      42.640  31.610  30.674  1.00  0.00    +0.000 H 
ATOM    107  H9  UNL A   1      43.561  30.190  28.929  1.00  0.00    +0.000 H 
ATOM     16  C11 UNL A   1      44.485  31.947  31.638  1.00  0.00    +0.000 C 
ATOM     17  C12 UNL A   1      43.649  31.395  30.664  1.00  0.00    +0.000 C 
ATOM     18  C13 UNL A   1      44.168  30.556  29.678  1.00  0.00    +0.000 C 
ATOM     19  C14 UNL A   1      45.513  30.223  29.718  1.00  0.00    +0.000 C 
ATOM     95  N8  UNL A   1      46.359  30.810  30.612  1.00  0.00    +0.000 N 
ATOM     96  C67 UNL A   1      45.838  31.670  31.520  1.00  0.00    +0.000 C 
BRANCH   16   15
ATOM    104  H6  UNL A   1      42.912  35.739  33.756  1.00  0.00    +0.000 H 
ATOM      9  C6  UNL A   1      43.542  34.065  32.623  1.00  0.00    +0.000 C 
ATOM     10  C7  UNL A   1      43.192  34.747  33.799  1.00  0.00    +0.000 C 
ATOM     11  C8  UNL A   1      43.223  34.085  35.022  1.00  0.00    +0.000 C 
ATOM     12 Cl1  UNL A   1      42.842  34.918  36.473  1.00  0.00    +0.000 Cl
ATOM     13  C9  UNL A   1      43.580  32.748  35.044  1.00  0.00    +0.000 C 
ATOM     14  N1  UNL A   1      43.934  32.046  33.943  1.00  0.00    +0.000 N 
ATOM     15  C10 UNL A   1      43.936  32.712  32.759  1.00  0.00    +0.000 C 
ATOM    105  H7  UNL A   1      43.577  32.259  35.953  1.00  0.00    +0.000 H 
BRANCH    9    8
ATOM     97  C68 UNL A   1      44.678  35.403  30.832  1.00  0.00    +0.000 C 
ATOM     98  C69 UNL A   1      44.706  35.958  29.548  1.00  0.00    +0.000 C 
ATOM      5  C2  UNL A   1      43.572  35.877  28.738  1.00  0.00    +0.000 C 
ATOM    102  H4  UNL A   1      41.576  35.198  28.597  1.00  0.00    +0.000 H 
ATOM      6  C3  UNL A   1      42.411  35.260  29.201  1.00  0.00    +0.000 C 
ATOM      7  C4  UNL A   1      42.387  34.723  30.491  1.00  0.00    +0.000 C 
ATOM    103  H5  UNL A   1      41.517  34.294  30.845  1.00  0.00    +0.000 H 
ATOM    138  H40 UNL A   1      45.558  36.425  29.202  1.00  0.00    +0.000 H 
ATOM      8  C5  UNL A   1      43.527  34.758  31.317  1.00  0.00    +0.000 C 
ATOM    137  H39 UNL A   1      45.515  35.468  31.431  1.00  0.00    +0.000 H 
BRANCH    5    2
ATOM      2  S1  UNL A   1      43.616  36.505  27.076  1.00  0.00    +0.000 S 
ATOM      3  O1  UNL A   1      43.544  37.952  27.169  1.00  0.00    +0.000 O 
ATOM      4  O2  UNL A   1      42.643  35.763  26.301  1.00  0.00    +0.000 O 
BRANCH    2    1
ATOM      1  C1  UNL A   1      45.233  36.054  26.503  1.00  0.00    +0.000 C 
ATOM     99  H1  UNL A   1      45.960  36.706  26.938  1.00  0.00    +0.000 H 
ATOM    100  H2  UNL A   1      45.270  36.138  25.437  1.00  0.00    +0.000 H 
ATOM    101  H3  UNL A   1      45.444  35.044  26.788  1.00  0.00    +0.000 H 
ENDBRANCH    2    1
ENDBRANCH    5    2
ENDBRANCH    9    8
ENDBRANCH   16   15
ENDBRANCH   20   19
ENDBRANCH   22   20
ENDBRANCH   23   22
ENDBRANCH   24   23
ENDBRANCH   25   24
ENDBRANCH   26   25
ENDBRANCH   27   26
ENDBRANCH   28   27
ENDBRANCH   29   28
ENDBRANCH   30   29
ENDBRANCH   32   30
ENDBRANCH   36   35
BRANCH   40   41
ATOM     41  C31 UNL A   1      41.966  27.139  27.701  1.00  0.00    +0.000 C 
ATOM     42  C32 UNL A   1      42.924  27.686  26.833  1.00  0.00    +0.000 C 
ATOM     43  F1  UNL A   1      43.356  28.943  27.009  1.00  0.00    +0.000 F 
ATOM     44  C33 UNL A   1      43.421  26.952  25.759  1.00  0.00    +0.000 C 
ATOM     45  F2  UNL A   1      44.305  27.510  24.921  1.00  0.00    +0.000 F 
ATOM     46  C34 UNL A   1      42.999  25.647  25.555  1.00  0.00    +0.000 C 
ATOM     47  F3  UNL A   1      43.492  24.935  24.531  1.00  0.00    +0.000 F 
ATOM     48  C35 UNL A   1      42.065  25.081  26.407  1.00  0.00    +0.000 C 
ATOM     49  F4  UNL A   1      41.668  23.815  26.220  1.00  0.00    +0.000 F 
ATOM     50  C36 UNL A   1      41.541  25.824  27.463  1.00  0.00    +0.000 C 
ATOM     51  F5  UNL A   1      40.631  25.250  28.266  1.00  0.00    +0.000 F 
ENDBRANCH   40   41
BRANCH   57   58
ATOM     65  C46 UNL A   1      34.395  31.438  28.246  1.00  0.00    +0.000 C 
ATOM     66  F9  UNL A   1      33.361  30.664  27.886  1.00  0.00    +0.000 F 
ATOM     67  C47 UNL A   1      35.477  30.882  28.920  1.00  0.00    +0.000 C 
ATOM     68  F10 UNL A   1      35.453  29.572  29.208  1.00  0.00    +0.000 F 
ATOM     58  C42 UNL A   1      36.583  31.666  29.284  1.00  0.00    +0.000 C 
ATOM     59  C43 UNL A   1      36.560  33.028  28.950  1.00  0.00    +0.000 C 
ATOM     60  F6  UNL A   1      37.585  33.825  29.289  1.00  0.00    +0.000 F 
ATOM     61  C44 UNL A   1      35.459  33.589  28.309  1.00  0.00    +0.000 C 
ATOM     62  F7  UNL A   1      35.433  34.905  28.054  1.00  0.00    +0.000 F 
ATOM     63  C45 UNL A   1      34.381  32.793  27.951  1.00  0.00    +0.000 C 
ATOM     64  F8  UNL A   1      33.325  33.334  27.328  1.00  0.00    +0.000 F 
ENDBRANCH   57   58
BRANCH   72   73
ATOM     73  C51 UNL A   1      38.916  32.090  35.835  1.00  0.00    +0.000 C 
ATOM     74  C52 UNL A   1      39.288  33.431  36.001  1.00  0.00    +0.000 C 
ATOM     75  F11 UNL A   1      40.035  34.039  35.067  1.00  0.00    +0.000 F 
ATOM     76  C53 UNL A   1      38.948  34.136  37.153  1.00  0.00    +0.000 C 
ATOM     77  F12 UNL A   1      39.379  35.394  37.316  1.00  0.00    +0.000 F 
ATOM     78  C54 UNL A   1      38.192  33.529  38.143  1.00  0.00    +0.000 C 
ATOM     79  F13 UNL A   1      37.871  34.205  39.255  1.00  0.00    +0.000 F 
ATOM     80  C55 UNL A   1      37.780  32.214  37.985  1.00  0.00    +0.000 C 
ATOM     81  F14 UNL A   1      37.034  31.627  38.932  1.00  0.00    +0.000 F 
ATOM     82  C56 UNL A   1      38.151  31.497  36.851  1.00  0.00    +0.000 C 
ATOM     83  F15 UNL A   1      37.761  30.218  36.740  1.00  0.00    +0.000 F 
ENDBRANCH   72   73
TORSDOF 19
ENDMDL
MODEL 8
REMARK VINA RESULT:      -8.0     28.743     36.729
ROOT
ATOM    129  H31 UNL A   1      28.271  37.394  45.757  1.00  0.00    +0.000 H 
ATOM    130  H32 UNL A   1      32.834  37.522  43.665  1.00  0.00    +0.000 H 
ATOM    131  H33 UNL A   1      33.347  39.486  45.223  1.00  0.00    +0.000 H 
ATOM    132  H34 UNL A   1      23.918  39.330  48.681  1.00  0.00    +0.000 H 
ATOM    133  H35 UNL A   1      23.539  37.072  47.534  1.00  0.00    +0.000 H 
ATOM     36  C27 UNL A   1      25.734  36.222  45.920  1.00  0.00    +0.000 C 
ATOM     37  C28 UNL A   1      25.660  37.430  46.812  1.00  0.00    +0.000 C 
ATOM     38  N4  UNL A   1      26.569  38.344  47.045  1.00  0.00    +0.000 N 
ATOM     39  C29 UNL A   1      25.983  39.245  47.924  1.00  0.00    +0.000 C 
ATOM     40  C30 UNL A   1      26.543  40.320  48.528  1.00  0.00    +0.000 C 
ATOM     52  C37 UNL A   1      27.904  40.743  48.327  1.00  0.00    +0.000 C 
ATOM     53  C38 UNL A   1      28.573  41.803  48.914  1.00  0.00    +0.000 C 
ATOM     54  C39 UNL A   1      29.864  41.857  48.378  1.00  0.00    +0.000 C 
ATOM     55  C40 UNL A   1      30.019  40.795  47.503  1.00  0.00    +0.000 C 
ATOM     56  N5  UNL A   1      28.805  40.125  47.472  1.00  0.00    +0.000 N 
ATOM     57  C41 UNL A   1      31.187  40.417  46.751  1.00  0.00    +0.000 C 
ATOM     69  C48 UNL A   1      31.259  39.357  45.909  1.00  0.00    +0.000 C 
ATOM     70  N6  UNL A   1      30.281  38.425  45.588  1.00  0.00    +0.000 N 
ATOM     71  C49 UNL A   1      30.827  37.615  44.713  1.00  0.00    +0.000 C 
ATOM     72  C50 UNL A   1      30.241  36.399  44.046  1.00  0.00    +0.000 C 
ATOM     84  C57 UNL A   1      28.986  36.024  44.360  1.00  0.00    +0.000 C 
ATOM     85  C58 UNL A   1      28.288  34.867  43.812  1.00  0.00    +0.000 C 
ATOM     86  C59 UNL A   1      27.039  34.837  44.303  1.00  0.00    +0.000 C 
ATOM     87  C60 UNL A   1      26.863  35.951  45.237  1.00  0.00    +0.000 C 
ATOM     88  N7  UNL A   1      28.074  36.596  45.213  1.00  0.00    +0.000 N 
ATOM     89  C61 UNL A   1      32.209  37.965  44.356  1.00  0.00    +0.000 C 
ATOM     90  C62 UNL A   1      32.440  38.999  45.151  1.00  0.00    +0.000 C 
ATOM     91  C63 UNL A   1      24.619  38.810  48.130  1.00  0.00    +0.000 C 
ATOM     92  C64 UNL A   1      24.389  37.658  47.519  1.00  0.00    +0.000 C 
ATOM    124  H26 UNL A   1      28.187  42.443  49.626  1.00  0.00    +0.000 H 
ATOM    125  H27 UNL A   1      30.579  42.567  48.597  1.00  0.00    +0.000 H 
ATOM    126  H28 UNL A   1      28.610  39.331  46.925  1.00  0.00    +0.000 H 
ATOM    127  H29 UNL A   1      28.688  34.181  43.153  1.00  0.00    +0.000 H 
ATOM    128  H30 UNL A   1      26.318  34.139  44.062  1.00  0.00    +0.000 H 
ENDROOT
BRANCH   36   35
ATOM     33  C24 UNL A   1      22.480  34.777  44.612  1.00  0.00    +0.000 C 
ATOM     34  C25 UNL A   1      23.625  35.567  44.720  1.00  0.00    +0.000 C 
ATOM     35  C26 UNL A   1      24.551  35.341  45.752  1.00  0.00    +0.000 C 
ATOM    134  H36 UNL A   1      25.018  34.100  47.399  1.00  0.00    +0.000 H 
ATOM    135  H37 UNL A   1      23.146  32.596  47.071  1.00  0.00    +0.000 H 
ATOM    122  H24 UNL A   1      21.785  34.968  43.874  1.00  0.00    +0.000 H 
ATOM    123  H25 UNL A   1      23.793  36.322  44.036  1.00  0.00    +0.000 H 
ATOM     93  C65 UNL A   1      24.349  34.269  46.632  1.00  0.00    +0.000 C 
ATOM     94  C66 UNL A   1      23.248  33.432  46.475  1.00  0.00    +0.000 C 
ATOM     32  C23 UNL A   1      22.280  33.725  45.508  1.00  0.00    +0.000 C 
BRANCH   32   30
ATOM     30  C22 UNL A   1      21.049  32.915  45.398  1.00  0.00    +0.000 C 
ATOM     31  O4  UNL A   1      20.750  32.130  46.293  1.00  0.00    +0.000 O 
BRANCH   30   29
ATOM    121  H23 UNL A   1      19.775  33.913  44.215  1.00  0.00    +0.000 H 
ATOM     29  N3  UNL A   1      20.240  33.049  44.300  1.00  0.00    +0.000 N 
BRANCH   29   28
ATOM     28  C21 UNL A   1      19.979  32.085  43.241  1.00  0.00    +0.000 C 
ATOM    119  H21 UNL A   1      19.738  32.614  42.341  1.00  0.00    +0.000 H 
ATOM    120  H22 UNL A   1      20.855  31.486  43.111  1.00  0.00    +0.000 H 
BRANCH   28   27
ATOM     27  C20 UNL A   1      18.818  31.161  43.595  1.00  0.00    +0.000 C 
ATOM    117  H19 UNL A   1      18.359  30.835  42.685  1.00  0.00    +0.000 H 
ATOM    118  H20 UNL A   1      19.228  30.353  44.163  1.00  0.00    +0.000 H 
BRANCH   27   26
ATOM     26  C19 UNL A   1      17.744  31.815  44.468  1.00  0.00    +0.000 C 
ATOM    115  H17 UNL A   1      17.449  31.112  45.218  1.00  0.00    +0.000 H 
ATOM    116  H18 UNL A   1      18.183  32.704  44.872  1.00  0.00    +0.000 H 
BRANCH   26   25
ATOM     25  C18 UNL A   1      16.484  32.263  43.711  1.00  0.00    +0.000 C 
ATOM    114  H16 UNL A   1      15.667  32.148  44.392  1.00  0.00    +0.000 H 
ATOM    113  H15 UNL A   1      16.391  31.659  42.833  1.00  0.00    +0.000 H 
BRANCH   25   24
ATOM    112  H14 UNL A   1      15.698  33.863  42.566  1.00  0.00    +0.000 H 
ATOM    111  H13 UNL A   1      17.443  33.970  42.864  1.00  0.00    +0.000 H 
ATOM     24  C17 UNL A   1      16.485  33.737  43.280  1.00  0.00    +0.000 C 
BRANCH   24   23
ATOM    109  H11 UNL A   1      15.718  35.574  44.062  1.00  0.00    +0.000 H 
ATOM    110  H12 UNL A   1      15.587  34.212  45.158  1.00  0.00    +0.000 H 
ATOM     23  C16 UNL A   1      16.209  34.701  44.437  1.00  0.00    +0.000 C 
BRANCH   23   22
ATOM    108  H10 UNL A   1      18.189  34.463  44.882  1.00  0.00    +0.000 H 
ATOM     22  N2  UNL A   1      17.452  35.086  45.073  1.00  0.00    +0.000 N 
BRANCH   22   20
ATOM     20  C15 UNL A   1      17.831  36.131  45.885  1.00  0.00    +0.000 C 
ATOM     21  O3  UNL A   1      17.114  37.134  45.828  1.00  0.00    +0.000 O 
BRANCH   20   19
ATOM    136  H38 UNL A   1      19.865  34.761  49.611  1.00  0.00    +0.000 H 
ATOM    106  H8  UNL A   1      22.052  37.471  47.332  1.00  0.00    +0.000 H 
ATOM    107  H9  UNL A   1      20.338  37.342  45.614  1.00  0.00    +0.000 H 
ATOM     16  C11 UNL A   1      21.068  36.180  48.678  1.00  0.00    +0.000 C 
ATOM     17  C12 UNL A   1      21.208  36.900  47.490  1.00  0.00    +0.000 C 
ATOM     18  C13 UNL A   1      20.213  36.852  46.512  1.00  0.00    +0.000 C 
ATOM     19  C14 UNL A   1      19.054  36.135  46.767  1.00  0.00    +0.000 C 
ATOM     95  N8  UNL A   1      18.932  35.367  47.887  1.00  0.00    +0.000 N 
ATOM     96  C67 UNL A   1      19.941  35.382  48.791  1.00  0.00    +0.000 C 
BRANCH   16   15
ATOM    104  H6  UNL A   1      23.395  38.497  51.929  1.00  0.00    +0.000 H 
ATOM      9  C6  UNL A   1      22.172  37.544  50.486  1.00  0.00    +0.000 C 
ATOM     10  C7  UNL A   1      23.241  37.629  51.392  1.00  0.00    +0.000 C 
ATOM     11  C8  UNL A   1      24.093  36.543  51.567  1.00  0.00    +0.000 C 
ATOM     12 Cl1  UNL A   1      25.431  36.648  52.636  1.00  0.00    +0.000 Cl
ATOM     13  C9  UNL A   1      23.846  35.384  50.851  1.00  0.00    +0.000 C 
ATOM     14  N1  UNL A   1      22.837  35.252  49.960  1.00  0.00    +0.000 N 
ATOM     15  C10 UNL A   1      22.033  36.331  49.769  1.00  0.00    +0.000 C 
ATOM    105  H7  UNL A   1      24.468  34.575  51.004  1.00  0.00    +0.000 H 
BRANCH    9    8
ATOM     97  C68 UNL A   1      19.941  38.660  50.746  1.00  0.00    +0.000 C 
ATOM     98  C69 UNL A   1      19.117  39.787  50.660  1.00  0.00    +0.000 C 
ATOM      5  C2  UNL A   1      19.615  40.962  50.095  1.00  0.00    +0.000 C 
ATOM    102  H4  UNL A   1      21.284  41.891  49.194  1.00  0.00    +0.000 H 
ATOM      6  C3  UNL A   1      20.919  41.019  49.607  1.00  0.00    +0.000 C 
ATOM      7  C4  UNL A   1      21.730  39.883  49.682  1.00  0.00    +0.000 C 
ATOM    103  H5  UNL A   1      22.685  39.916  49.293  1.00  0.00    +0.000 H 
ATOM    138  H40 UNL A   1      18.148  39.749  51.010  1.00  0.00    +0.000 H 
ATOM      8  C5  UNL A   1      21.267  38.694  50.280  1.00  0.00    +0.000 C 
ATOM    137  H39 UNL A   1      19.571  37.790  51.160  1.00  0.00    +0.000 H 
BRANCH    5    2
ATOM      2  S1  UNL A   1      18.608  42.426  50.051  1.00  0.00    +0.000 S 
ATOM      3  O1  UNL A   1      18.572  42.872  48.669  1.00  0.00    +0.000 O 
ATOM      4  O2  UNL A   1      19.071  43.309  51.101  1.00  0.00    +0.000 O 
BRANCH    2    1
ATOM      1  C1  UNL A   1      16.996  41.838  50.499  1.00  0.00    +0.000 C 
ATOM     99  H1  UNL A   1      16.255  42.522  50.143  1.00  0.00    +0.000 H 
ATOM    100  H2  UNL A   1      16.928  41.760  51.564  1.00  0.00    +0.000 H 
ATOM    101  H3  UNL A   1      16.833  40.875  50.061  1.00  0.00    +0.000 H 
ENDBRANCH    2    1
ENDBRANCH    5    2
ENDBRANCH    9    8
ENDBRANCH   16   15
ENDBRANCH   20   19
ENDBRANCH   22   20
ENDBRANCH   23   22
ENDBRANCH   24   23
ENDBRANCH   25   24
ENDBRANCH   26   25
ENDBRANCH   27   26
ENDBRANCH   28   27
ENDBRANCH   29   28
ENDBRANCH   30   29
ENDBRANCH   32   30
ENDBRANCH   36   35
BRANCH   40   41
ATOM     41  C31 UNL A   1      25.691  41.109  49.482  1.00  0.00    +0.000 C 
ATOM     42  C32 UNL A   1      24.993  42.252  49.065  1.00  0.00    +0.000 C 
ATOM     43  F1  UNL A   1      25.132  42.708  47.811  1.00  0.00    +0.000 F 
ATOM     44  C33 UNL A   1      24.169  42.951  49.943  1.00  0.00    +0.000 C 
ATOM     45  F2  UNL A   1      23.544  44.062  49.532  1.00  0.00    +0.000 F 
ATOM     46  C34 UNL A   1      23.999  42.500  51.244  1.00  0.00    +0.000 C 
ATOM     47  F3  UNL A   1      23.192  43.164  52.084  1.00  0.00    +0.000 F 
ATOM     48  C35 UNL A   1      24.668  41.365  51.675  1.00  0.00    +0.000 C 
ATOM     49  F4  UNL A   1      24.493  40.921  52.927  1.00  0.00    +0.000 F 
ATOM     50  C36 UNL A   1      25.518  40.683  50.807  1.00  0.00    +0.000 C 
ATOM     51  F5  UNL A   1      26.158  39.593  51.258  1.00  0.00    +0.000 F 
ENDBRANCH   40   41
BRANCH   57   58
ATOM     65  C46 UNL A   1      34.654  41.506  47.883  1.00  0.00    +0.000 C 
ATOM     66  F9  UNL A   1      35.657  41.023  48.629  1.00  0.00    +0.000 F 
ATOM     67  C47 UNL A   1      33.507  40.745  47.684  1.00  0.00    +0.000 C 
ATOM     68  F10 UNL A   1      33.439  39.526  48.239  1.00  0.00    +0.000 F 
ATOM     58  C42 UNL A   1      32.431  41.240  46.929  1.00  0.00    +0.000 C 
ATOM     59  C43 UNL A   1      32.553  42.524  46.379  1.00  0.00    +0.000 C 
ATOM     60  F6  UNL A   1      31.561  43.038  45.636  1.00  0.00    +0.000 F 
ATOM     61  C44 UNL A   1      33.717  43.269  46.549  1.00  0.00    +0.000 C 
ATOM     62  F7  UNL A   1      33.834  44.469  45.964  1.00  0.00    +0.000 F 
ATOM     63  C45 UNL A   1      34.763  42.762  47.306  1.00  0.00    +0.000 C 
ATOM     64  F8  UNL A   1      35.880  43.484  47.474  1.00  0.00    +0.000 F 
ENDBRANCH   57   58
BRANCH   72   73
ATOM     73  C51 UNL A   1      31.034  35.619  43.057  1.00  0.00    +0.000 C 
ATOM     74  C52 UNL A   1      31.657  34.415  43.413  1.00  0.00    +0.000 C 
ATOM     75  F11 UNL A   1      31.527  33.937  44.659  1.00  0.00    +0.000 F 
ATOM     76  C53 UNL A   1      32.466  33.728  42.511  1.00  0.00    +0.000 C 
ATOM     77  F12 UNL A   1      33.107  32.618  42.901  1.00  0.00    +0.000 F 
ATOM     78  C54 UNL A   1      32.633  34.207  41.221  1.00  0.00    +0.000 C 
ATOM     79  F13 UNL A   1      33.418  33.550  40.356  1.00  0.00    +0.000 F 
ATOM     80  C55 UNL A   1      31.997  35.377  40.834  1.00  0.00    +0.000 C 
ATOM     81  F14 UNL A   1      32.143  35.835  39.582  1.00  0.00    +0.000 F 
ATOM     82  C56 UNL A   1      31.219  36.084  41.746  1.00  0.00    +0.000 C 
ATOM     83  F15 UNL A   1      30.640  37.227  41.349  1.00  0.00    +0.000 F 
ENDBRANCH   72   73
TORSDOF 19
ENDMDL
MODEL 9
REMARK VINA RESULT:      -8.0      1.046      2.163
ROOT
ATOM    129  H31 UNL A   1       9.807  20.147  21.107  1.00  0.00    +0.000 H 
ATOM    130  H32 UNL A   1       5.885  23.163  20.249  1.00  0.00    +0.000 H 
ATOM    131  H33 UNL A   1       4.579  21.060  19.603  1.00  0.00    +0.000 H 
ATOM    132  H34 UNL A   1      12.828  15.455  20.788  1.00  0.00    +0.000 H 
ATOM    133  H35 UNL A   1      14.001  17.428  21.924  1.00  0.00    +0.000 H 
ATOM     36  C27 UNL A   1      12.473  19.838  21.902  1.00  0.00    +0.000 C 
ATOM     37  C28 UNL A   1      12.050  18.475  21.427  1.00  0.00    +0.000 C 
ATOM     38  N4  UNL A   1      10.909  18.096  20.909  1.00  0.00    +0.000 N 
ATOM     39  C29 UNL A   1      11.053  16.744  20.626  1.00  0.00    +0.000 C 
ATOM     40  C30 UNL A   1      10.124  15.878  20.157  1.00  0.00    +0.000 C 
ATOM     52  C37 UNL A   1       8.769  16.240  19.832  1.00  0.00    +0.000 C 
ATOM     53  C38 UNL A   1       7.745  15.430  19.376  1.00  0.00    +0.000 C 
ATOM     54  C39 UNL A   1       6.619  16.229  19.151  1.00  0.00    +0.000 C 
ATOM     55  C40 UNL A   1       6.924  17.528  19.525  1.00  0.00    +0.000 C 
ATOM     56  N5  UNL A   1       8.250  17.523  19.930  1.00  0.00    +0.000 N 
ATOM     57  C41 UNL A   1       6.070  18.687  19.514  1.00  0.00    +0.000 C 
ATOM     69  C48 UNL A   1       6.446  19.932  19.897  1.00  0.00    +0.000 C 
ATOM     70  N6  UNL A   1       7.675  20.368  20.372  1.00  0.00    +0.000 N 
ATOM     71  C49 UNL A   1       7.546  21.657  20.579  1.00  0.00    +0.000 C 
ATOM     72  C50 UNL A   1       8.548  22.639  21.125  1.00  0.00    +0.000 C 
ATOM     84  C57 UNL A   1       9.767  22.195  21.486  1.00  0.00    +0.000 C 
ATOM     85  C58 UNL A   1      10.836  23.017  22.040  1.00  0.00    +0.000 C 
ATOM     86  C59 UNL A   1      11.924  22.253  22.224  1.00  0.00    +0.000 C 
ATOM     87  C60 UNL A   1      11.615  20.875  21.839  1.00  0.00    +0.000 C 
ATOM     88  N7  UNL A   1      10.308  20.934  21.422  1.00  0.00    +0.000 N 
ATOM     89  C61 UNL A   1       6.222  22.189  20.226  1.00  0.00    +0.000 C 
ATOM     90  C62 UNL A   1       5.576  21.089  19.868  1.00  0.00    +0.000 C 
ATOM     91  C63 UNL A   1      12.412  16.382  20.963  1.00  0.00    +0.000 C 
ATOM     92  C64 UNL A   1      13.050  17.399  21.523  1.00  0.00    +0.000 C 
ATOM    124  H26 UNL A   1       7.800  14.410  19.228  1.00  0.00    +0.000 H 
ATOM    125  H27 UNL A   1       5.716  15.908  18.771  1.00  0.00    +0.000 H 
ATOM    126  H28 UNL A   1       8.750  18.312  20.241  1.00  0.00    +0.000 H 
ATOM    127  H29 UNL A   1      10.768  24.024  22.256  1.00  0.00    +0.000 H 
ATOM    128  H30 UNL A   1      12.835  22.584  22.580  1.00  0.00    +0.000 H 
ENDROOT
BRANCH   36   35
ATOM     33  C24 UNL A   1      16.205  20.511  21.991  1.00  0.00    +0.000 C 
ATOM     34  C25 UNL A   1      14.899  20.370  21.518  1.00  0.00    +0.000 C 
ATOM     35  C26 UNL A   1      13.852  20.064  22.403  1.00  0.00    +0.000 C 
ATOM    134  H36 UNL A   1      13.359  19.734  24.433  1.00  0.00    +0.000 H 
ATOM    135  H37 UNL A   1      15.584  20.200  25.271  1.00  0.00    +0.000 H 
ATOM    122  H24 UNL A   1      16.977  20.701  21.333  1.00  0.00    +0.000 H 
ATOM    123  H25 UNL A   1      14.702  20.492  20.513  1.00  0.00    +0.000 H 
ATOM     93  C65 UNL A   1      14.119  19.969  23.775  1.00  0.00    +0.000 C 
ATOM     94  C66 UNL A   1      15.407  20.188  24.255  1.00  0.00    +0.000 C 
ATOM     32  C23 UNL A   1      16.461  20.393  23.358  1.00  0.00    +0.000 C 
BRANCH   32   30
ATOM     30  C22 UNL A   1      17.853  20.517  23.839  1.00  0.00    +0.000 C 
ATOM     31  O4  UNL A   1      18.766  19.981  23.218  1.00  0.00    +0.000 O 
BRANCH   30   29
ATOM    121  H23 UNL A   1      18.122  22.215  24.869  1.00  0.00    +0.000 H 
ATOM     29  N3  UNL A   1      18.121  21.236  24.974  1.00  0.00    +0.000 N 
BRANCH   29   28
ATOM     28  C21 UNL A   1      18.404  20.745  26.315  1.00  0.00    +0.000 C 
ATOM    119  H21 UNL A   1      18.730  19.727  26.250  1.00  0.00    +0.000 H 
ATOM    120  H22 UNL A   1      19.164  21.364  26.744  1.00  0.00    +0.000 H 
BRANCH   28   27
ATOM     27  C20 UNL A   1      17.172  20.813  27.212  1.00  0.00    +0.000 C 
ATOM    117  H19 UNL A   1      17.481  21.144  28.182  1.00  0.00    +0.000 H 
ATOM    118  H20 UNL A   1      16.486  21.488  26.744  1.00  0.00    +0.000 H 
BRANCH   27   26
ATOM     26  C19 UNL A   1      16.442  19.477  27.370  1.00  0.00    +0.000 C 
ATOM    115  H17 UNL A   1      15.910  19.278  26.463  1.00  0.00    +0.000 H 
ATOM    116  H18 UNL A   1      17.192  18.746  27.589  1.00  0.00    +0.000 H 
BRANCH   26   25
ATOM     25  C18 UNL A   1      15.438  19.425  28.532  1.00  0.00    +0.000 C 
ATOM    114  H16 UNL A   1      16.014  19.282  29.421  1.00  0.00    +0.000 H 
ATOM    113  H15 UNL A   1      14.749  18.629  28.341  1.00  0.00    +0.000 H 
BRANCH   25   24
ATOM    112  H14 UNL A   1      14.838  21.361  27.913  1.00  0.00    +0.000 H 
ATOM    111  H13 UNL A   1      14.926  21.154  29.671  1.00  0.00    +0.000 H 
ATOM     24  C17 UNL A   1      14.632  20.716  28.741  1.00  0.00    +0.000 C 
BRANCH   24   23
ATOM    109  H11 UNL A   1      12.907  19.608  29.351  1.00  0.00    +0.000 H 
ATOM    110  H12 UNL A   1      12.642  21.334  29.204  1.00  0.00    +0.000 H 
ATOM     23  C16 UNL A   1      13.119  20.480  28.770  1.00  0.00    +0.000 C 
BRANCH   23   22
ATOM    108  H10 UNL A   1      13.021  19.519  26.969  1.00  0.00    +0.000 H 
ATOM     22  N2  UNL A   1      12.617  20.293  27.424  1.00  0.00    +0.000 N 
BRANCH   22   20
ATOM     20  C15 UNL A   1      11.702  20.957  26.642  1.00  0.00    +0.000 C 
ATOM     21  O3  UNL A   1      11.889  22.172  26.520  1.00  0.00    +0.000 O 
BRANCH   20   19
ATOM    136  H38 UNL A   1       8.904  17.496  26.338  1.00  0.00    +0.000 H 
ATOM    106  H8  UNL A   1       8.263  20.500  23.531  1.00  0.00    +0.000 H 
ATOM    107  H9  UNL A   1       9.948  21.847  24.651  1.00  0.00    +0.000 H 
ATOM     16  C11 UNL A   1       8.488  18.826  24.792  1.00  0.00    +0.000 C 
ATOM     17  C12 UNL A   1       8.780  20.112  24.335  1.00  0.00    +0.000 C 
ATOM     18  C13 UNL A   1       9.767  20.878  24.956  1.00  0.00    +0.000 C 
ATOM     19  C14 UNL A   1      10.500  20.318  25.991  1.00  0.00    +0.000 C 
ATOM     95  N8  UNL A   1      10.180  19.095  26.501  1.00  0.00    +0.000 N 
ATOM     96  C67 UNL A   1       9.174  18.398  25.918  1.00  0.00    +0.000 C 
BRANCH   16   15
ATOM    104  H6  UNL A   1       4.338  17.430  23.317  1.00  0.00    +0.000 H 
ATOM      9  C6  UNL A   1       6.177  18.254  23.969  1.00  0.00    +0.000 C 
ATOM     10  C7  UNL A   1       5.355  17.270  23.397  1.00  0.00    +0.000 C 
ATOM     11  C8  UNL A   1       5.910  16.080  22.940  1.00  0.00    +0.000 C 
ATOM     12 Cl1  UNL A   1       4.911  14.849  22.281  1.00  0.00    +0.000 Cl
ATOM     13  C9  UNL A   1       7.279  15.904  23.040  1.00  0.00    +0.000 C 
ATOM     14  N1  UNL A   1       8.115  16.816  23.588  1.00  0.00    +0.000 N 
ATOM     15  C10 UNL A   1       7.558  17.959  24.066  1.00  0.00    +0.000 C 
ATOM    105  H7  UNL A   1       7.686  15.029  22.676  1.00  0.00    +0.000 H 
BRANCH    9    8
ATOM     97  C68 UNL A   1       5.398  19.720  25.848  1.00  0.00    +0.000 C 
ATOM     98  C69 UNL A   1       4.965  20.956  26.340  1.00  0.00    +0.000 C 
ATOM      5  C2  UNL A   1       4.721  22.003  25.451  1.00  0.00    +0.000 C 
ATOM    102  H4  UNL A   1       4.716  22.605  23.425  1.00  0.00    +0.000 H 
ATOM      6  C3  UNL A   1       4.893  21.826  24.079  1.00  0.00    +0.000 C 
ATOM      7  C4  UNL A   1       5.311  20.583  23.595  1.00  0.00    +0.000 C 
ATOM    103  H5  UNL A   1       5.409  20.443  22.578  1.00  0.00    +0.000 H 
ATOM    138  H40 UNL A   1       4.825  21.092  27.353  1.00  0.00    +0.000 H 
ATOM      8  C5  UNL A   1       5.600  19.519  24.472  1.00  0.00    +0.000 C 
ATOM    137  H39 UNL A   1       5.574  18.946  26.507  1.00  0.00    +0.000 H 
BRANCH    5    2
ATOM      2  S1  UNL A   1       4.247  23.603  26.064  1.00  0.00    +0.000 S 
ATOM      3  O1  UNL A   1       2.873  23.825  25.649  1.00  0.00    +0.000 O 
ATOM      4  O2  UNL A   1       5.291  24.539  25.702  1.00  0.00    +0.000 O 
BRANCH    2    1
ATOM      1  C1  UNL A   1       4.280  23.400  27.826  1.00  0.00    +0.000 C 
ATOM     99  H1  UNL A   1       5.029  22.683  28.089  1.00  0.00    +0.000 H 
ATOM    100  H2  UNL A   1       3.324  23.059  28.164  1.00  0.00    +0.000 H 
ATOM    101  H3  UNL A   1       4.508  24.338  28.289  1.00  0.00    +0.000 H 
ENDBRANCH    2    1
ENDBRANCH    5    2
ENDBRANCH    9    8
ENDBRANCH   16   15
ENDBRANCH   20   19
ENDBRANCH   22   20
ENDBRANCH   23   22
ENDBRANCH   24   23
ENDBRANCH   25   24
ENDBRANCH   26   25
ENDBRANCH   27   26
ENDBRANCH   28   27
ENDBRANCH   29   28
ENDBRANCH   30   29
ENDBRANCH   32   30
ENDBRANCH   36   35
BRANCH   40   41
ATOM     41  C31 UNL A   1      10.532  14.442  19.982  1.00  0.00    +0.000 C 
ATOM     42  C32 UNL A   1      10.358  13.502  21.010  1.00  0.00    +0.000 C 
ATOM     43  F1  UNL A   1       9.885  13.888  22.204  1.00  0.00    +0.000 F 
ATOM     44  C33 UNL A   1      10.696  12.165  20.824  1.00  0.00    +0.000 C 
ATOM     45  F2  UNL A   1      10.557  11.294  21.833  1.00  0.00    +0.000 F 
ATOM     46  C34 UNL A   1      11.181  11.734  19.598  1.00  0.00    +0.000 C 
ATOM     47  F3  UNL A   1      11.490  10.442  19.415  1.00  0.00    +0.000 F 
ATOM     48  C35 UNL A   1      11.349  12.642  18.564  1.00  0.00    +0.000 C 
ATOM     49  F4  UNL A   1      11.803  12.224  17.374  1.00  0.00    +0.000 F 
ATOM     50  C36 UNL A   1      11.042  13.987  18.757  1.00  0.00    +0.000 C 
ATOM     51  F5  UNL A   1      11.224  14.842  17.739  1.00  0.00    +0.000 F 
ENDBRANCH   40   41
BRANCH   57   58
ATOM     65  C46 UNL A   1       3.022  18.236  17.279  1.00  0.00    +0.000 C 
ATOM     66  F9  UNL A   1       2.750  18.142  15.970  1.00  0.00    +0.000 F 
ATOM     67  C47 UNL A   1       4.338  18.376  17.708  1.00  0.00    +0.000 C 
ATOM     68  F10 UNL A   1       5.315  18.399  16.789  1.00  0.00    +0.000 F 
ATOM     58  C42 UNL A   1       4.646  18.504  19.071  1.00  0.00    +0.000 C 
ATOM     59  C43 UNL A   1       3.585  18.482  19.988  1.00  0.00    +0.000 C 
ATOM     60  F6  UNL A   1       3.826  18.585  21.304  1.00  0.00    +0.000 F 
ATOM     61  C44 UNL A   1       2.272  18.305  19.559  1.00  0.00    +0.000 C 
ATOM     62  F7  UNL A   1       1.280  18.227  20.457  1.00  0.00    +0.000 F 
ATOM     63  C45 UNL A   1       1.991  18.189  18.205  1.00  0.00    +0.000 C 
ATOM     64  F8  UNL A   1       0.726  18.025  17.794  1.00  0.00    +0.000 F 
ENDBRANCH   57   58
BRANCH   72   73
ATOM     73  C51 UNL A   1       8.200  24.079  21.266  1.00  0.00    +0.000 C 
ATOM     74  C52 UNL A   1       7.548  24.560  22.411  1.00  0.00    +0.000 C 
ATOM     75  F11 UNL A   1       7.245  23.719  23.411  1.00  0.00    +0.000 F 
ATOM     76  C53 UNL A   1       7.150  25.891  22.508  1.00  0.00    +0.000 C 
ATOM     77  F12 UNL A   1       6.464  26.305  23.581  1.00  0.00    +0.000 F 
ATOM     78  C54 UNL A   1       7.433  26.779  21.482  1.00  0.00    +0.000 C 
ATOM     79  F13 UNL A   1       7.043  28.058  21.572  1.00  0.00    +0.000 F 
ATOM     80  C55 UNL A   1       8.110  26.336  20.356  1.00  0.00    +0.000 C 
ATOM     81  F14 UNL A   1       8.402  27.195  19.368  1.00  0.00    +0.000 F 
ATOM     82  C56 UNL A   1       8.476  24.998  20.242  1.00  0.00    +0.000 C 
ATOM     83  F15 UNL A   1       9.104  24.594  19.128  1.00  0.00    +0.000 F 
ENDBRANCH   72   73
TORSDOF 19
ENDMDL
MODEL 10
REMARK VINA RESULT:      -8.0     35.577     41.551
ROOT
ATOM    129  H31 UNL A   1      15.925  51.826   1.043  1.00  0.00    +0.000 H 
ATOM    130  H32 UNL A   1      15.084  46.944   0.220  1.00  0.00    +0.000 H 
ATOM    131  H33 UNL A   1      13.087  47.158   1.806  1.00  0.00    +0.000 H 
ATOM    132  H34 UNL A   1      15.494  56.722   3.705  1.00  0.00    +0.000 H 
ATOM    133  H35 UNL A   1      17.157  56.686   1.757  1.00  0.00    +0.000 H 
ATOM     36  C27 UNL A   1      17.456  54.117   0.552  1.00  0.00    +0.000 C 
ATOM     37  C28 UNL A   1      16.494  54.520   1.635  1.00  0.00    +0.000 C 
ATOM     38  N4  UNL A   1      15.595  53.797   2.253  1.00  0.00    +0.000 N 
ATOM     39  C29 UNL A   1      14.995  54.646   3.175  1.00  0.00    +0.000 C 
ATOM     40  C30 UNL A   1      13.950  54.394   3.997  1.00  0.00    +0.000 C 
ATOM     52  C37 UNL A   1      13.267  53.129   4.076  1.00  0.00    +0.000 C 
ATOM     53  C38 UNL A   1      12.180  52.782   4.858  1.00  0.00    +0.000 C 
ATOM     54  C39 UNL A   1      11.893  51.431   4.636  1.00  0.00    +0.000 C 
ATOM     55  C40 UNL A   1      12.763  50.953   3.671  1.00  0.00    +0.000 C 
ATOM     56  N5  UNL A   1      13.609  52.001   3.344  1.00  0.00    +0.000 N 
ATOM     57  C41 UNL A   1      12.819  49.636   3.089  1.00  0.00    +0.000 C 
ATOM     69  C48 UNL A   1      13.706  49.243   2.144  1.00  0.00    +0.000 C 
ATOM     70  N6  UNL A   1      14.719  49.972   1.535  1.00  0.00    +0.000 N 
ATOM     71  C49 UNL A   1      15.316  49.144   0.712  1.00  0.00    +0.000 C 
ATOM     72  C50 UNL A   1      16.459  49.400  -0.234  1.00  0.00    +0.000 C 
ATOM     84  C57 UNL A   1      16.981  50.640  -0.306  1.00  0.00    +0.000 C 
ATOM     85  C58 UNL A   1      18.077  51.047  -1.178  1.00  0.00    +0.000 C 
ATOM     86  C59 UNL A   1      18.370  52.334  -0.939  1.00  0.00    +0.000 C 
ATOM     87  C60 UNL A   1      17.453  52.857   0.075  1.00  0.00    +0.000 C 
ATOM     88  N7  UNL A   1      16.658  51.782   0.386  1.00  0.00    +0.000 N 
ATOM     89  C61 UNL A   1      14.765  47.782   0.731  1.00  0.00    +0.000 C 
ATOM     90  C62 UNL A   1      13.755  47.911   1.578  1.00  0.00    +0.000 C 
ATOM     91  C63 UNL A   1      15.677  55.918   3.085  1.00  0.00    +0.000 C 
ATOM     92  C64 UNL A   1      16.566  55.913   2.104  1.00  0.00    +0.000 C 
ATOM    124  H26 UNL A   1      11.667  53.412   5.495  1.00  0.00    +0.000 H 
ATOM    125  H27 UNL A   1      11.158  50.885   5.111  1.00  0.00    +0.000 H 
ATOM    126  H28 UNL A   1      14.343  51.953   2.690  1.00  0.00    +0.000 H 
ATOM    127  H29 UNL A   1      18.550  50.443  -1.868  1.00  0.00    +0.000 H 
ATOM    128  H30 UNL A   1      19.124  52.871  -1.398  1.00  0.00    +0.000 H 
ENDROOT
BRANCH   36   35
ATOM     33  C24 UNL A   1      20.443  56.445   0.325  1.00  0.00    +0.000 C 
ATOM     34  C25 UNL A   1      19.556  55.476   0.797  1.00  0.00    +0.000 C 
ATOM     35  C26 UNL A   1      18.446  55.091   0.028  1.00  0.00    +0.000 C 
ATOM    134  H36 UNL A   1      17.457  55.372  -1.820  1.00  0.00    +0.000 H 
ATOM    135  H37 UNL A   1      19.120  56.885  -2.724  1.00  0.00    +0.000 H 
ATOM    122  H24 UNL A   1      21.237  56.750   0.909  1.00  0.00    +0.000 H 
ATOM    123  H25 UNL A   1      19.718  55.038   1.718  1.00  0.00    +0.000 H 
ATOM     93  C65 UNL A   1      18.275  55.641  -1.250  1.00  0.00    +0.000 C 
ATOM     94  C66 UNL A   1      19.203  56.547  -1.754  1.00  0.00    +0.000 C 
ATOM     32  C23 UNL A   1      20.249  56.999  -0.942  1.00  0.00    +0.000 C 
BRANCH   32   30
ATOM     30  C22 UNL A   1      21.181  58.044  -1.415  1.00  0.00    +0.000 C 
ATOM     31  O4  UNL A   1      21.171  59.155  -0.895  1.00  0.00    +0.000 O 
BRANCH   30   29
ATOM    121  H23 UNL A   1      22.041  58.390  -3.192  1.00  0.00    +0.000 H 
ATOM     29  N3  UNL A   1      22.058  57.766  -2.432  1.00  0.00    +0.000 N 
BRANCH   29   28
ATOM     28  C21 UNL A   1      23.012  56.672  -2.534  1.00  0.00    +0.000 C 
ATOM    119  H21 UNL A   1      23.986  57.035  -2.280  1.00  0.00    +0.000 H 
ATOM    120  H22 UNL A   1      22.705  55.897  -1.863  1.00  0.00    +0.000 H 
BRANCH   28   27
ATOM     27  C20 UNL A   1      23.054  56.091  -3.944  1.00  0.00    +0.000 C 
ATOM    117  H19 UNL A   1      22.440  55.215  -3.966  1.00  0.00    +0.000 H 
ATOM    118  H20 UNL A   1      22.705  56.857  -4.605  1.00  0.00    +0.000 H 
BRANCH   27   26
ATOM     26  C19 UNL A   1      24.458  55.705  -4.417  1.00  0.00    +0.000 C 
ATOM    115  H17 UNL A   1      25.078  56.575  -4.368  1.00  0.00    +0.000 H 
ATOM    116  H18 UNL A   1      24.787  54.915  -3.774  1.00  0.00    +0.000 H 
BRANCH   26   25
ATOM     25  C18 UNL A   1      24.526  55.151  -5.848  1.00  0.00    +0.000 C 
ATOM    114  H16 UNL A   1      25.367  54.490  -5.877  1.00  0.00    +0.000 H 
ATOM    113  H15 UNL A   1      24.615  55.978  -6.521  1.00  0.00    +0.000 H 
BRANCH   25   24
ATOM    112  H14 UNL A   1      22.493  54.593  -5.634  1.00  0.00    +0.000 H 
ATOM    111  H13 UNL A   1      23.553  53.282  -6.181  1.00  0.00    +0.000 H 
ATOM     24  C17 UNL A   1      23.307  54.319  -6.272  1.00  0.00    +0.000 C 
BRANCH   24   23
ATOM    109  H11 UNL A   1      23.376  55.455  -8.083  1.00  0.00    +0.000 H 
ATOM    110  H12 UNL A   1      23.107  53.739  -8.317  1.00  0.00    +0.000 H 
ATOM     23  C16 UNL A   1      22.867  54.590  -7.714  1.00  0.00    +0.000 C 
BRANCH   23   22
ATOM    108  H10 UNL A   1      21.029  54.501  -8.603  1.00  0.00    +0.000 H 
ATOM     22  N2  UNL A   1      21.437  54.816  -7.765  1.00  0.00    +0.000 N 
BRANCH   22   20
ATOM     20  C15 UNL A   1      20.524  55.376  -6.902  1.00  0.00    +0.000 C 
ATOM     21  O3  UNL A   1      20.600  56.601  -6.769  1.00  0.00    +0.000 O 
BRANCH   20   19
ATOM    136  H38 UNL A   1      16.269  54.229  -6.202  1.00  0.00    +0.000 H 
ATOM    106  H8  UNL A   1      18.957  52.732  -3.399  1.00  0.00    +0.000 H 
ATOM    107  H9  UNL A   1      20.781  53.623  -4.737  1.00  0.00    +0.000 H 
ATOM     16  C11 UNL A   1      17.427  53.476  -4.645  1.00  0.00    +0.000 C 
ATOM     17  C12 UNL A   1      18.752  53.278  -4.250  1.00  0.00    +0.000 C 
ATOM     18  C13 UNL A   1      19.801  53.811  -4.999  1.00  0.00    +0.000 C 
ATOM     19  C14 UNL A   1      19.508  54.599  -6.102  1.00  0.00    +0.000 C 
ATOM     95  N8  UNL A   1      18.227  54.741  -6.546  1.00  0.00    +0.000 N 
ATOM     96  C67 UNL A   1      17.231  54.159  -5.835  1.00  0.00    +0.000 C 
BRANCH   16   15
ATOM    104  H6  UNL A   1      13.965  50.701  -3.360  1.00  0.00    +0.000 H 
ATOM      9  C6  UNL A   1      15.651  51.811  -3.999  1.00  0.00    +0.000 C 
ATOM     10  C7  UNL A   1      14.494  51.579  -3.239  1.00  0.00    +0.000 C 
ATOM     11  C8  UNL A   1      14.059  52.533  -2.324  1.00  0.00    +0.000 C 
ATOM     12 Cl1  UNL A   1      12.620  52.283  -1.422  1.00  0.00    +0.000 Cl
ATOM     13  C9  UNL A   1      14.802  53.690  -2.168  1.00  0.00    +0.000 C 
ATOM     14  N1  UNL A   1      15.920  53.966  -2.880  1.00  0.00    +0.000 N 
ATOM     15  C10 UNL A   1      16.314  53.045  -3.797  1.00  0.00    +0.000 C 
ATOM    105  H7  UNL A   1      14.487  54.381  -1.470  1.00  0.00    +0.000 H 
BRANCH    9    8
ATOM     97  C68 UNL A   1      17.281  50.060  -4.751  1.00  0.00    +0.000 C 
ATOM     98  C69 UNL A   1      17.662  49.033  -5.621  1.00  0.00    +0.000 C 
ATOM      5  C2  UNL A   1      16.880  48.756  -6.743  1.00  0.00    +0.000 C 
ATOM    102  H4  UNL A   1      15.154  49.289  -7.839  1.00  0.00    +0.000 H 
ATOM      6  C3  UNL A   1      15.731  49.500  -7.011  1.00  0.00    +0.000 C 
ATOM      7  C4  UNL A   1      15.368  50.535  -6.144  1.00  0.00    +0.000 C 
ATOM    103  H5  UNL A   1      14.535  51.105  -6.359  1.00  0.00    +0.000 H 
ATOM    138  H40 UNL A   1      18.516  48.485  -5.435  1.00  0.00    +0.000 H 
ATOM      8  C5  UNL A   1      16.117  50.813  -4.985  1.00  0.00    +0.000 C 
ATOM    137  H39 UNL A   1      17.862  50.266  -3.924  1.00  0.00    +0.000 H 
BRANCH    5    2
ATOM      2  S1  UNL A   1      17.304  47.403  -7.815  1.00  0.00    +0.000 S 
ATOM      3  O1  UNL A   1      18.522  47.782  -8.511  1.00  0.00    +0.000 O 
ATOM      4  O2  UNL A   1      16.113  47.037  -8.553  1.00  0.00    +0.000 O 
BRANCH    2    1
ATOM      1  C1  UNL A   1      17.681  46.083  -6.692  1.00  0.00    +0.000 C 
ATOM     99  H1  UNL A   1      17.589  46.434  -5.686  1.00  0.00    +0.000 H 
ATOM    100  H2  UNL A   1      18.681  45.744  -6.862  1.00  0.00    +0.000 H 
ATOM    101  H3  UNL A   1      16.998  45.274  -6.850  1.00  0.00    +0.000 H 
ENDBRANCH    2    1
ENDBRANCH    5    2
ENDBRANCH    9    8
ENDBRANCH   16   15
ENDBRANCH   20   19
ENDBRANCH   22   20
ENDBRANCH   23   22
ENDBRANCH   24   23
ENDBRANCH   25   24
ENDBRANCH   26   25
ENDBRANCH   27   26
ENDBRANCH   28   27
ENDBRANCH   29   28
ENDBRANCH   30   29
ENDBRANCH   32   30
ENDBRANCH   36   35
BRANCH   40   41
ATOM     41  C31 UNL A   1      13.461  55.516   4.871  1.00  0.00    +0.000 C 
ATOM     42  C32 UNL A   1      12.471  56.407   4.429  1.00  0.00    +0.000 C 
ATOM     43  F1  UNL A   1      11.989  56.318   3.181  1.00  0.00    +0.000 F 
ATOM     44  C33 UNL A   1      11.992  57.415   5.261  1.00  0.00    +0.000 C 
ATOM     45  F2  UNL A   1      11.075  58.279   4.804  1.00  0.00    +0.000 F 
ATOM     46  C34 UNL A   1      12.465  57.529   6.560  1.00  0.00    +0.000 C 
ATOM     47  F3  UNL A   1      11.990  58.490   7.366  1.00  0.00    +0.000 F 
ATOM     48  C35 UNL A   1      13.433  56.652   7.022  1.00  0.00    +0.000 C 
ATOM     49  F4  UNL A   1      13.881  56.751   8.281  1.00  0.00    +0.000 F 
ATOM     50  C36 UNL A   1      13.939  55.662   6.181  1.00  0.00    +0.000 C 
ATOM     51  F5  UNL A   1      14.881  54.834   6.656  1.00  0.00    +0.000 F 
ENDBRANCH   40   41
BRANCH   57   58
ATOM     65  C46 UNL A   1      11.138  46.854   5.069  1.00  0.00    +0.000 C 
ATOM     66  F9  UNL A   1      11.414  46.071   6.121  1.00  0.00    +0.000 F 
ATOM     67  C47 UNL A   1      12.056  47.814   4.656  1.00  0.00    +0.000 C 
ATOM     68  F10 UNL A   1      13.203  47.943   5.339  1.00  0.00    +0.000 F 
ATOM     58  C42 UNL A   1      11.802  48.627   3.540  1.00  0.00    +0.000 C 
ATOM     59  C43 UNL A   1      10.590  48.443   2.858  1.00  0.00    +0.000 C 
ATOM     60  F6  UNL A   1      10.291  49.205   1.794  1.00  0.00    +0.000 F 
ATOM     61  C44 UNL A   1       9.657  47.507   3.296  1.00  0.00    +0.000 C 
ATOM     62  F7  UNL A   1       8.481  47.390   2.663  1.00  0.00    +0.000 F 
ATOM     63  C45 UNL A   1       9.934  46.709   4.395  1.00  0.00    +0.000 C 
ATOM     64  F8  UNL A   1       9.037  45.804   4.811  1.00  0.00    +0.000 F 
ENDBRANCH   57   58
BRANCH   72   73
ATOM     73  C51 UNL A   1      17.006  48.304  -1.080  1.00  0.00    +0.000 C 
ATOM     74  C52 UNL A   1      16.345  47.888  -2.245  1.00  0.00    +0.000 C 
ATOM     75  F11 UNL A   1      15.211  48.494  -2.624  1.00  0.00    +0.000 F 
ATOM     76  C53 UNL A   1      16.813  46.809  -2.991  1.00  0.00    +0.000 C 
ATOM     77  F12 UNL A   1      16.121  46.387  -4.058  1.00  0.00    +0.000 F 
ATOM     78  C54 UNL A   1      17.973  46.151  -2.613  1.00  0.00    +0.000 C 
ATOM     79  F13 UNL A   1      18.418  45.107  -3.327  1.00  0.00    +0.000 F 
ATOM     80  C55 UNL A   1      18.664  46.569  -1.485  1.00  0.00    +0.000 C 
ATOM     81  F14 UNL A   1      19.796  45.947  -1.125  1.00  0.00    +0.000 F 
ATOM     82  C56 UNL A   1      18.178  47.624  -0.718  1.00  0.00    +0.000 C 
ATOM     83  F15 UNL A   1      18.854  47.985   0.383  1.00  0.00    +0.000 F 
ENDBRANCH   72   73
TORSDOF 19
ENDMDL
