MODEL 1
REMARK VINA RESULT:     -10.8      0.000      0.000
REMARK  Name = 
REMARK  24 active torsions:
REMARK  status: ('A' for Active; 'I' for Inactive)
REMARK    1  A    between atoms: N_1  and  CA_2
REMARK    2  A    between atoms: CA_2  and  CB_3
REMARK    3  A    between atoms: CA_2  and  C_13
REMARK    4  A    between atoms: CB_3  and  CG_4
REMARK    5  A    between atoms: N_15  and  CA_16
REMARK    6  A    between atoms: CA_16  and  CB_17
REMARK    7  A    between atoms: CA_16  and  C_19
REMARK    8  A    between atoms: CB_17  and  SG_18
REMARK    9  A    between atoms: N_21  and  C_22
REMARK   10  A    between atoms: C_22  and  C_23
REMARK   11  A    between atoms: C_22  and  C_25
REMARK   12  A    between atoms: C_23  and  O_24
REMARK   13  A    between atoms: N_27  and  C_28
REMARK   14  A    between atoms: C_28  and  C_29
REMARK   15  A    between atoms: C_29  and  C_30
REMARK   16  A    between atoms: C_30  and  C_31
REMARK   17  A    between atoms: C_31  and  C_32
REMARK   18  A    between atoms: C_32  and  C_33
REMARK   19  A    between atoms: C_33  and  N_34
REMARK   20  A    between atoms: C_35  and  C_37
REMARK   21  A    between atoms: C_40  and  C_41
REMARK   22  A    between atoms: C_45  and  C_46
REMARK   23  A    between atoms: C_62  and  C_63
REMARK   24  A    between atoms: C_77  and  C_78
REMARK                            x       y       z     vdW  Elec       q    Type
REMARK                         _______ _______ _______ _____ _____    ______ ____
ROOT
ATOM      1  C   UNK A   3      21.205  38.076  48.414  0.00  0.00    +0.000 C 
ATOM      2  C   UNK A   3      22.024  39.339  48.479  0.00  0.00    +0.000 C 
ATOM      3  N   UNK A   3      21.688  40.469  49.031  0.00  0.00    +0.000 NA
ATOM      4  C   UNK A   3      22.737  41.333  48.857  0.00  0.00    +0.000 C 
ATOM      5  C   UNK A   3      22.803  42.622  49.254  0.00  0.00    +0.000 C 
ATOM      6  C   UNK A   3      21.774  43.345  49.967  0.00  0.00    +0.000 A 
ATOM      7  C   UNK A   3      21.796  44.680  50.347  0.00  0.00    +0.000 A 
ATOM      8  C   UNK A   3      20.630  44.960  51.072  0.00  0.00    +0.000 A 
ATOM      9  C   UNK A   3      19.850  43.819  51.098  0.00  0.00    +0.000 A 
ATOM     10  N   UNK A   3      20.561  42.839  50.421  0.00  0.00    +0.000 N 
ATOM     11  C   UNK A   3      18.551  43.627  51.692  0.00  0.00    +0.000 C 
ATOM     12  C   UNK A   3      17.844  42.472  51.662  0.00  0.00    +0.000 C 
ATOM     13  N   UNK A   3      18.189  41.267  51.058  0.00  0.00    +0.000 NA
ATOM     14  C   UNK A   3      17.188  40.451  51.287  0.00  0.00    +0.000 C 
ATOM     15  C   UNK A   3      17.028  39.014  50.833  0.00  0.00    +0.000 C 
ATOM     16  C   UNK A   3      17.990  38.420  50.092  0.00  0.00    +0.000 A 
ATOM     17  C   UNK A   3      17.965  37.054  49.581  0.00  0.00    +0.000 A 
ATOM     18  C   UNK A   3      19.120  36.800  48.937  0.00  0.00    +0.000 A 
ATOM     19  C   UNK A   3      19.968  38.000  48.965  0.00  0.00    +0.000 A 
ATOM     20  N   UNK A   3      19.198  38.913  49.651  0.00  0.00    +0.000 N 
ATOM     21  C   UNK A   3      16.100  41.044  52.075  0.00  0.00    +0.000 C 
ATOM     22  C   UNK A   3      16.542  42.281  52.267  0.00  0.00    +0.000 C 
ATOM     23  C   UNK A   3      23.763  40.592  48.146  0.00  0.00    +0.000 C 
ATOM     24  C   UNK A   3      23.360  39.352  47.872  0.00  0.00    +0.000 C 
ATOM     25  H   UNK A   3      20.205  41.904  50.292  0.00  0.00    +0.000 HD
ATOM     26  H   UNK A   3      19.460  39.864  49.884  0.00  0.00    +0.000 HD
ENDROOT
BRANCH  15  27
ATOM     27  C   UNK A   3      15.806  38.256  51.206  0.00  0.00    +0.000 A 
ATOM     28  C   UNK A   3      15.655  37.696  52.485  0.00  0.00    +0.000 A 
ATOM     29  F   UNK A   3      16.628  37.826  53.401  0.00  0.00    +0.000 F 
ATOM     30  C   UNK A   3      14.487  37.019  52.842  0.00  0.00    +0.000 A 
ATOM     31  F   UNK A   3      14.363  36.491  54.069  0.00  0.00    +0.000 F 
ATOM     32  C   UNK A   3      13.445  36.902  51.933  0.00  0.00    +0.000 A 
ATOM     33  F   UNK A   3      12.312  36.279  52.286  0.00  0.00    +0.000 F 
ATOM     34  C   UNK A   3      13.574  37.446  50.662  0.00  0.00    +0.000 A 
ATOM     35  F   UNK A   3      12.559  37.356  49.791  0.00  0.00    +0.000 F 
ATOM     36  C   UNK A   3      14.749  38.108  50.298  0.00  0.00    +0.000 A 
ATOM     37  F   UNK A   3      14.841  38.633  49.067  0.00  0.00    +0.000 F 
ENDBRANCH  15  27
BRANCH  11  38
ATOM     38  C   UNK A   3      17.907  44.792  52.371  0.00  0.00    +0.000 A 
ATOM     39  C   UNK A   3      17.060  45.665  51.676  0.00  0.00    +0.000 A 
ATOM     40  F   UNK A   3      16.826  45.480  50.368  0.00  0.00    +0.000 F 
ATOM     41  C   UNK A   3      16.454  46.737  52.325  0.00  0.00    +0.000 A 
ATOM     42  F   UNK A   3      15.662  47.569  51.636  0.00  0.00    +0.000 F 
ATOM     43  C   UNK A   3      16.671  46.944  53.678  0.00  0.00    +0.000 A 
ATOM     44  F   UNK A   3      16.082  47.969  54.312  0.00  0.00    +0.000 F 
ATOM     45  C   UNK A   3      17.502  46.086  54.383  0.00  0.00    +0.000 A 
ATOM     46  F   UNK A   3      17.707  46.288  55.692  0.00  0.00    +0.000 F 
ATOM     47  C   UNK A   3      18.121  45.022  53.737  0.00  0.00    +0.000 A 
ATOM     48  F   UNK A   3      18.939  44.222  54.438  0.00  0.00    +0.000 F 
ENDBRANCH  11  38
BRANCH   5  49
ATOM     49  C   UNK A   3      24.063  43.344  48.914  0.00  0.00    +0.000 A 
ATOM     50  C   UNK A   3      25.228  43.158  49.665  0.00  0.00    +0.000 A 
ATOM     51  F   UNK A   3      25.219  42.348  50.735  0.00  0.00    +0.000 F 
ATOM     52  C   UNK A   3      26.407  43.812  49.322  0.00  0.00    +0.000 A 
ATOM     53  F   UNK A   3      27.506  43.641  50.069  0.00  0.00    +0.000 F 
ATOM     54  C   UNK A   3      26.444  44.651  48.217  0.00  0.00    +0.000 A 
ATOM     55  F   UNK A   3      27.579  45.282  47.890  0.00  0.00    +0.000 F 
ATOM     56  C   UNK A   3      25.296  44.846  47.461  0.00  0.00    +0.000 A 
ATOM     57  F   UNK A   3      25.322  45.663  46.400  0.00  0.00    +0.000 F 
ATOM     58  C   UNK A   3      24.113  44.201  47.808  0.00  0.00    +0.000 A 
ATOM     59  F   UNK A   3      23.009  44.409  47.075  0.00  0.00    +0.000 F 
ENDBRANCH   5  49
BRANCH   1  63
ATOM     60  C   UNK A   3      22.872  34.591  46.483  0.00  0.00    +0.000 A 
ATOM     61  C   UNK A   3      23.116  34.837  47.841  0.00  0.00    +0.000 A 
ATOM     62  C   UNK A   3      22.571  35.967  48.472  0.00  0.00    +0.000 A 
ATOM     63  C   UNK A   3      21.791  36.880  47.752  0.00  0.00    +0.000 A 
ATOM     64  C   UNK A   3      21.562  36.653  46.388  0.00  0.00    +0.000 A 
ATOM     65  C   UNK A   3      22.092  35.513  45.766  0.00  0.00    +0.000 A 
BRANCH  60  67
ATOM     66  N   UNK A   3      23.381  32.194  46.468  0.00  0.00    +0.000 N 
ATOM     67  C   UNK A   3      23.455  33.397  45.775  0.00  0.00    +0.000 C 
ATOM     68  O   UNK A   3      23.951  33.505  44.656  0.00  0.00    +0.000 OA
ATOM     69  H   UNK A   3      22.823  32.140  47.313  0.00  0.00    +0.000 HD
BRANCH  66  70
ATOM     70  C   UNK A   3      23.903  30.962  45.889  0.00  0.00    +0.000 C 
BRANCH  70  71
ATOM     71  C   UNK A   3      22.925  30.318  44.905  0.00  0.00    +0.000 C 
BRANCH  71  72
ATOM     72  C   UNK A   3      21.680  29.783  45.622  0.00  0.00    +0.000 C 
BRANCH  72  73
ATOM     73  C   UNK A   3      20.387  30.400  45.072  0.00  0.00    +0.000 C 
BRANCH  73  74
ATOM     74  C   UNK A   3      20.677  31.605  44.173  0.00  0.00    +0.000 C 
BRANCH  74  75
ATOM     75  C   UNK A   3      19.512  32.591  44.128  0.00  0.00    +0.000 C 
BRANCH  75  78
ATOM     76  C   UNK A   3      17.145  31.922  43.714  0.00  0.00    +0.000 C 
ATOM     77  O   UNK A   3      16.738  32.083  44.865  0.00  0.00    +0.000 OA
ATOM     78  N   UNK A   3      18.444  32.093  43.271  0.00  0.00    +0.000 N 
ATOM     79  H   UNK A   3      18.672  31.976  42.288  0.00  0.00    +0.000 HD
BRANCH  76  80
ATOM     80  C   UNK A   3      16.078  31.557  42.681  0.00  0.00    +0.000 C 
BRANCH  80  83
ATOM     81  C   CYS A   2      16.100  29.096  43.295  0.00  0.00    +0.000 C 
ATOM     82  O   CYS A   2      17.295  28.921  43.082  0.00  0.00    +0.000 OA
ATOM     83  N   UNK A   3      15.432  30.300  43.147  0.00  0.00    +0.000 N 
ATOM     84  H   UNK A   3      14.452  30.370  43.426  0.00  0.00    +0.000 HD
BRANCH  81  85
ATOM     85  CA  CYS A   2      15.260  27.928  43.789  0.00  0.00    +0.000 C 
BRANCH  85  88
ATOM     86  C   TRP A   1      13.945  26.149  42.602  0.00  0.00    +0.000 C 
ATOM     87  O   TRP A   1      13.203  25.921  43.560  0.00  0.00    +0.000 OA
ATOM     88  N   CYS A   2      14.903  27.148  42.606  0.00  0.00    +0.000 N 
ATOM     89  H   CYS A   2      15.413  27.271  41.724  0.00  0.00    +0.000 HD
BRANCH  86  90
ATOM     90  CA  TRP A   1      13.827  25.380  41.243  0.00  0.00    +0.000 C 
BRANCH  90  91
ATOM     91  N   TRP A   1      14.263  26.284  40.145  0.00  0.00    +0.000 NA
ATOM     92  H1  TRP A   1      14.163  25.765  39.268  0.00  0.00    +0.000 HD
ATOM     93  H2  TRP A   1      15.267  26.439  40.234  0.00  0.00    +0.000 HD
ENDBRANCH  90  91
BRANCH  90  94
ATOM     94  CB  TRP A   1      14.616  24.054  41.368  0.00  0.00    +0.000 C 
BRANCH  94  95
ATOM     95  CG  TRP A   1      14.399  23.001  40.309  0.00  0.00    +0.000 A 
ATOM     96  CD1 TRP A   1      14.757  23.060  38.972  0.00  0.00    +0.000 A 
ATOM     97  NE1 TRP A   1      14.340  21.904  38.353  0.00  0.00    +0.000 N 
ATOM     98  CE2 TRP A   1      13.633  21.119  39.237  0.00  0.00    +0.000 A 
ATOM     99  CZ2 TRP A   1      12.988  19.885  39.054  0.00  0.00    +0.000 A 
ATOM    100  CH2 TRP A   1      12.301  19.347  40.150  0.00  0.00    +0.000 A 
ATOM    101  CZ3 TRP A   1      12.263  20.014  41.372  0.00  0.00    +0.000 A 
ATOM    102  CE3 TRP A   1      12.932  21.230  41.545  0.00  0.00    +0.000 A 
ATOM    103  CD2 TRP A   1      13.639  21.794  40.463  0.00  0.00    +0.000 A 
ATOM    104  HE1 TRP A   1      14.491  21.692  37.376  0.00  0.00    +0.000 HD
ENDBRANCH  94  95
ENDBRANCH  90  94
ENDBRANCH  86  90
ENDBRANCH  85  88
BRANCH  85 105
ATOM    105  CB  CYS A   2      15.966  27.115  44.881  0.00  0.00    +0.000 C 
BRANCH 105 106
ATOM    106  SG  CYS A   2      16.925  25.662  44.306  0.00  0.00    +0.000 S 
ATOM    107  HG  CYS A   2      18.124  26.264  44.268  0.00  0.00    +0.000 HD
ENDBRANCH 105 106
ENDBRANCH  85 105
ENDBRANCH  81  85
ENDBRANCH  80  83
BRANCH  80 108
ATOM    108  C   UNK A   3      15.055  32.682  42.532  0.00  0.00    +0.000 C 
BRANCH 108 109
ATOM    109  O   UNK A   3      14.424  33.093  43.747  0.00  0.00    +0.000 OA
ATOM    110  H   UNK A   3      14.589  34.024  43.966  0.00  0.00    +0.000 HD
ENDBRANCH 108 109
ENDBRANCH  80 108
ENDBRANCH  76  80
ENDBRANCH  75  78
ENDBRANCH  74  75
ENDBRANCH  73  74
ENDBRANCH  72  73
ENDBRANCH  71  72
ENDBRANCH  70  71
ENDBRANCH  66  70
ENDBRANCH  60  67
ENDBRANCH   1  63
TORSDOF 24
ENDMDL
MODEL 2
REMARK VINA RESULT:     -10.7     42.196     46.842
REMARK  Name = 
REMARK  24 active torsions:
REMARK  status: ('A' for Active; 'I' for Inactive)
REMARK    1  A    between atoms: N_1  and  CA_2
REMARK    2  A    between atoms: CA_2  and  CB_3
REMARK    3  A    between atoms: CA_2  and  C_13
REMARK    4  A    between atoms: CB_3  and  CG_4
REMARK    5  A    between atoms: N_15  and  CA_16
REMARK    6  A    between atoms: CA_16  and  CB_17
REMARK    7  A    between atoms: CA_16  and  C_19
REMARK    8  A    between atoms: CB_17  and  SG_18
REMARK    9  A    between atoms: N_21  and  C_22
REMARK   10  A    between atoms: C_22  and  C_23
REMARK   11  A    between atoms: C_22  and  C_25
REMARK   12  A    between atoms: C_23  and  O_24
REMARK   13  A    between atoms: N_27  and  C_28
REMARK   14  A    between atoms: C_28  and  C_29
REMARK   15  A    between atoms: C_29  and  C_30
REMARK   16  A    between atoms: C_30  and  C_31
REMARK   17  A    between atoms: C_31  and  C_32
REMARK   18  A    between atoms: C_32  and  C_33
REMARK   19  A    between atoms: C_33  and  N_34
REMARK   20  A    between atoms: C_35  and  C_37
REMARK   21  A    between atoms: C_40  and  C_41
REMARK   22  A    between atoms: C_45  and  C_46
REMARK   23  A    between atoms: C_62  and  C_63
REMARK   24  A    between atoms: C_77  and  C_78
REMARK                            x       y       z     vdW  Elec       q    Type
REMARK                         _______ _______ _______ _____ _____    ______ ____
ROOT
ATOM      1  C   UNK A   3      13.631  53.652   5.167  0.00  0.00    +0.000 C 
ATOM      2  C   UNK A   3      13.178  52.215   5.195  0.00  0.00    +0.000 C 
ATOM      3  N   UNK A   3      13.519  51.264   4.375  0.00  0.00    +0.000 NA
ATOM      4  C   UNK A   3      12.875  50.127   4.782  0.00  0.00    +0.000 C 
ATOM      5  C   UNK A   3      12.926  48.909   4.199  0.00  0.00    +0.000 C 
ATOM      6  C   UNK A   3      13.700  48.561   3.028  0.00  0.00    +0.000 A 
ATOM      7  C   UNK A   3      13.737  47.333   2.382  0.00  0.00    +0.000 A 
ATOM      8  C   UNK A   3      14.660  47.407   1.331  0.00  0.00    +0.000 A 
ATOM      9  C   UNK A   3      15.159  48.695   1.279  0.00  0.00    +0.000 A 
ATOM     10  N   UNK A   3      14.565  49.390   2.324  0.00  0.00    +0.000 N 
ATOM     11  C   UNK A   3      16.107  49.260   0.352  0.00  0.00    +0.000 C 
ATOM     12  C   UNK A   3      16.537  50.544   0.364  0.00  0.00    +0.000 C 
ATOM     13  N   UNK A   3      16.162  51.570   1.226  0.00  0.00    +0.000 NA
ATOM     14  C   UNK A   3      16.834  52.628   0.841  0.00  0.00    +0.000 C 
ATOM     15  C   UNK A   3      16.788  54.028   1.417  0.00  0.00    +0.000 C 
ATOM     16  C   UNK A   3      15.977  54.313   2.460  0.00  0.00    +0.000 A 
ATOM     17  C   UNK A   3      15.825  55.612   3.106  0.00  0.00    +0.000 A 
ATOM     18  C   UNK A   3      14.975  55.494   4.143  0.00  0.00    +0.000 A 
ATOM     19  C   UNK A   3      14.493  54.108   4.226  0.00  0.00    +0.000 A 
ATOM     20  N   UNK A   3      15.127  53.492   3.168  0.00  0.00    +0.000 N 
ATOM     21  C   UNK A   3      17.723  52.388  -0.304  0.00  0.00    +0.000 C 
ATOM     22  C   UNK A   3      17.495  51.106  -0.566  0.00  0.00    +0.000 C 
ATOM     23  C   UNK A   3      12.110  50.490   5.961  0.00  0.00    +0.000 C 
ATOM     24  C   UNK A   3      12.251  51.783   6.248  0.00  0.00    +0.000 C 
ATOM     25  H   UNK A   3      14.759  50.363   2.504  0.00  0.00    +0.000 HD
ATOM     26  H   UNK A   3      15.054  52.515   2.912  0.00  0.00    +0.000 HD
ENDROOT
BRANCH  15  27
ATOM     27  C   UNK A   3      17.640  55.094   0.829  0.00  0.00    +0.000 A 
ATOM     28  C   UNK A   3      18.846  55.483   1.435  0.00  0.00    +0.000 A 
ATOM     29  F   UNK A   3      19.249  54.903   2.576  0.00  0.00    +0.000 F 
ATOM     30  C   UNK A   3      19.661  56.458   0.856  0.00  0.00    +0.000 A 
ATOM     31  F   UNK A   3      20.809  56.817   1.452  0.00  0.00    +0.000 F 
ATOM     32  C   UNK A   3      19.295  57.050  -0.345  0.00  0.00    +0.000 A 
ATOM     33  F   UNK A   3      20.093  57.962  -0.916  0.00  0.00    +0.000 F 
ATOM     34  C   UNK A   3      18.106  56.682  -0.960  0.00  0.00    +0.000 A 
ATOM     35  F   UNK A   3      17.762  57.232  -2.133  0.00  0.00    +0.000 F 
ATOM     36  C   UNK A   3      17.280  55.720  -0.373  0.00  0.00    +0.000 A 
ATOM     37  F   UNK A   3      16.143  55.375  -0.995  0.00  0.00    +0.000 F 
ENDBRANCH  15  27
BRANCH  11  38
ATOM     38  C   UNK A   3      16.641  48.382  -0.733  0.00  0.00    +0.000 A 
ATOM     39  C   UNK A   3      17.911  47.797  -0.638  0.00  0.00    +0.000 A 
ATOM     40  F   UNK A   3      18.686  48.035   0.430  0.00  0.00    +0.000 F 
ATOM     41  C   UNK A   3      18.390  46.968  -1.649  0.00  0.00    +0.000 A 
ATOM     42  F   UNK A   3      19.613  46.434  -1.546  0.00  0.00    +0.000 F 
ATOM     43  C   UNK A   3      17.604  46.698  -2.759  0.00  0.00    +0.000 A 
ATOM     44  F   UNK A   3      18.054  45.892  -3.731  0.00  0.00    +0.000 F 
ATOM     45  C   UNK A   3      16.342  47.264  -2.865  0.00  0.00    +0.000 A 
ATOM     46  F   UNK A   3      15.584  46.998  -3.938  0.00  0.00    +0.000 F 
ATOM     47  C   UNK A   3      15.864  48.105  -1.865  0.00  0.00    +0.000 A 
ATOM     48  F   UNK A   3      14.650  48.657  -2.006  0.00  0.00    +0.000 F 
ENDBRANCH  11  38
BRANCH   5  49
ATOM     49  C   UNK A   3      12.104  47.844   4.841  0.00  0.00    +0.000 A 
ATOM     50  C   UNK A   3      12.660  46.968   5.778  0.00  0.00    +0.000 A 
ATOM     51  F   UNK A   3      13.963  47.049   6.089  0.00  0.00    +0.000 F 
ATOM     52  C   UNK A   3      11.877  45.996   6.396  0.00  0.00    +0.000 A 
ATOM     53  F   UNK A   3      12.434  45.149   7.272  0.00  0.00    +0.000 F 
ATOM     54  C   UNK A   3      10.526  45.895   6.096  0.00  0.00    +0.000 A 
ATOM     55  F   UNK A   3       9.775  44.957   6.688  0.00  0.00    +0.000 F 
ATOM     56  C   UNK A   3       9.959  46.758   5.167  0.00  0.00    +0.000 A 
ATOM     57  F   UNK A   3       8.658  46.658   4.865  0.00  0.00    +0.000 F 
ATOM     58  C   UNK A   3      10.742  47.723   4.542  0.00  0.00    +0.000 A 
ATOM     59  F   UNK A   3      10.182  48.541   3.639  0.00  0.00    +0.000 F 
ENDBRANCH   5  49
BRANCH   1  63
ATOM     60  C   UNK A   3      12.186  56.308   8.251  0.00  0.00    +0.000 A 
ATOM     61  C   UNK A   3      11.550  56.255   7.003  0.00  0.00    +0.000 A 
ATOM     62  C   UNK A   3      12.015  55.388   6.001  0.00  0.00    +0.000 A 
ATOM     63  C   UNK A   3      13.135  54.576   6.221  0.00  0.00    +0.000 A 
ATOM     64  C   UNK A   3      13.789  54.642   7.459  0.00  0.00    +0.000 A 
ATOM     65  C   UNK A   3      13.309  55.494   8.465  0.00  0.00    +0.000 A 
BRANCH  60  67
ATOM     66  N   UNK A   3      11.033  56.636  10.389  0.00  0.00    +0.000 N 
ATOM     67  C   UNK A   3      11.719  57.237   9.340  0.00  0.00    +0.000 C 
ATOM     68  O   UNK A   3      11.949  58.443   9.284  0.00  0.00    +0.000 OA
ATOM     69  H   UNK A   3      11.013  55.624  10.455  0.00  0.00    +0.000 HD
BRANCH  66  70
ATOM     70  C   UNK A   3      10.535  57.424  11.509  0.00  0.00    +0.000 C 
BRANCH  70  71
ATOM     71  C   UNK A   3       9.447  56.694  12.299  0.00  0.00    +0.000 C 
BRANCH  71  72
ATOM     72  C   UNK A   3       9.780  56.646  13.796  0.00  0.00    +0.000 C 
BRANCH  72  73
ATOM     73  C   UNK A   3      11.242  56.260  14.051  0.00  0.00    +0.000 C 
BRANCH  73  74
ATOM     74  C   UNK A   3      11.351  55.069  15.008  0.00  0.00    +0.000 C 
BRANCH  74  75
ATOM     75  C   UNK A   3      10.984  53.748  14.338  0.00  0.00    +0.000 C 
BRANCH  75  78
ATOM     76  C   UNK A   3      12.902  52.282  13.709  0.00  0.00    +0.000 C 
ATOM     77  O   UNK A   3      12.971  52.622  12.528  0.00  0.00    +0.000 OA
ATOM     78  N   UNK A   3      11.974  52.722  14.637  0.00  0.00    +0.000 N 
ATOM     79  H   UNK A   3      12.026  52.412  15.603  0.00  0.00    +0.000 HD
BRANCH  76  80
ATOM     80  C   UNK A   3      13.997  51.328  14.188  0.00  0.00    +0.000 C 
BRANCH  80  83
ATOM     81  C   CYS A   2      12.627  49.235  14.604  0.00  0.00    +0.000 C 
ATOM     82  O   CYS A   2      12.058  49.650  15.609  0.00  0.00    +0.000 OA
ATOM     83  N   UNK A   3      13.548  49.949  13.857  0.00  0.00    +0.000 N 
ATOM     84  H   UNK A   3      13.910  49.550  12.989  0.00  0.00    +0.000 HD
BRANCH  81  85
ATOM     85  CA  CYS A   2      12.298  47.840  14.094  0.00  0.00    +0.000 C 
BRANCH  85  88
ATOM     86  C   TRP A   1      12.074  47.287  11.656  0.00  0.00    +0.000 C 
ATOM     87  O   TRP A   1      10.876  47.004  11.730  0.00  0.00    +0.000 OA
ATOM     88  N   CYS A   2      12.806  47.770  12.727  0.00  0.00    +0.000 N 
ATOM     89  H   CYS A   2      13.779  48.021  12.516  0.00  0.00    +0.000 HD
BRANCH  86  90
ATOM     90  CA  TRP A   1      12.878  47.205  10.315  0.00  0.00    +0.000 C 
BRANCH  90  91
ATOM     91  N   TRP A   1      12.050  47.790   9.227  0.00  0.00    +0.000 NA
ATOM     92  H1  TRP A   1      11.834  47.033   8.571  0.00  0.00    +0.000 HD
ATOM     93  H2  TRP A   1      12.630  48.432   8.688  0.00  0.00    +0.000 HD
ENDBRANCH  90  91
BRANCH  90  94
ATOM     94  CB  TRP A   1      14.257  47.874  10.536  0.00  0.00    +0.000 C 
BRANCH  94  95
ATOM     95  CG  TRP A   1      14.496  49.224   9.906  0.00  0.00    +0.000 A 
ATOM     96  CD1 TRP A   1      13.948  50.440  10.278  0.00  0.00    +0.000 A 
ATOM     97  NE1 TRP A   1      14.400  51.411   9.415  0.00  0.00    +0.000 N 
ATOM     98  CE2 TRP A   1      15.169  50.845   8.422  0.00  0.00    +0.000 A 
ATOM     99  CZ2 TRP A   1      15.804  51.423   7.311  0.00  0.00    +0.000 A 
ATOM    100  CH2 TRP A   1      16.488  50.566   6.440  0.00  0.00    +0.000 A 
ATOM    101  CZ3 TRP A   1      16.533  49.193   6.670  0.00  0.00    +0.000 A 
ATOM    102  CE3 TRP A   1      15.916  48.636   7.795  0.00  0.00    +0.000 A 
ATOM    103  CD2 TRP A   1      15.227  49.473   8.696  0.00  0.00    +0.000 A 
ATOM    104  HE1 TRP A   1      14.158  52.391   9.478  0.00  0.00    +0.000 HD
ENDBRANCH  94  95
ENDBRANCH  90  94
ENDBRANCH  86  90
ENDBRANCH  85  88
BRANCH  85 105
ATOM    105  CB  CYS A   2      12.833  46.735  15.015  0.00  0.00    +0.000 C 
BRANCH 105 106
ATOM    106  SG  CYS A   2      11.676  46.132  16.302  0.00  0.00    +0.000 S 
ATOM    107  HG  CYS A   2      12.499  46.293  17.349  0.00  0.00    +0.000 HD
ENDBRANCH 105 106
ENDBRANCH  85 105
ENDBRANCH  81  85
ENDBRANCH  80  83
BRANCH  80 108
ATOM    108  C   UNK A   3      15.333  51.651  13.520  0.00  0.00    +0.000 C 
BRANCH 108 109
ATOM    109  O   UNK A   3      15.705  53.031  13.545  0.00  0.00    +0.000 OA
ATOM    110  H   UNK A   3      16.665  53.167  13.564  0.00  0.00    +0.000 HD
ENDBRANCH 108 109
ENDBRANCH  80 108
ENDBRANCH  76  80
ENDBRANCH  75  78
ENDBRANCH  74  75
ENDBRANCH  73  74
ENDBRANCH  72  73
ENDBRANCH  71  72
ENDBRANCH  70  71
ENDBRANCH  66  70
ENDBRANCH  60  67
ENDBRANCH   1  63
TORSDOF 24
ENDMDL
MODEL 3
REMARK VINA RESULT:     -10.6     48.197     54.525
REMARK  Name = 
REMARK  24 active torsions:
REMARK  status: ('A' for Active; 'I' for Inactive)
REMARK    1  A    between atoms: N_1  and  CA_2
REMARK    2  A    between atoms: CA_2  and  CB_3
REMARK    3  A    between atoms: CA_2  and  C_13
REMARK    4  A    between atoms: CB_3  and  CG_4
REMARK    5  A    between atoms: N_15  and  CA_16
REMARK    6  A    between atoms: CA_16  and  CB_17
REMARK    7  A    between atoms: CA_16  and  C_19
REMARK    8  A    between atoms: CB_17  and  SG_18
REMARK    9  A    between atoms: N_21  and  C_22
REMARK   10  A    between atoms: C_22  and  C_23
REMARK   11  A    between atoms: C_22  and  C_25
REMARK   12  A    between atoms: C_23  and  O_24
REMARK   13  A    between atoms: N_27  and  C_28
REMARK   14  A    between atoms: C_28  and  C_29
REMARK   15  A    between atoms: C_29  and  C_30
REMARK   16  A    between atoms: C_30  and  C_31
REMARK   17  A    between atoms: C_31  and  C_32
REMARK   18  A    between atoms: C_32  and  C_33
REMARK   19  A    between atoms: C_33  and  N_34
REMARK   20  A    between atoms: C_35  and  C_37
REMARK   21  A    between atoms: C_40  and  C_41
REMARK   22  A    between atoms: C_45  and  C_46
REMARK   23  A    between atoms: C_62  and  C_63
REMARK   24  A    between atoms: C_77  and  C_78
REMARK                            x       y       z     vdW  Elec       q    Type
REMARK                         _______ _______ _______ _____ _____    ______ ____
ROOT
ATOM      1  C   UNK A   3      53.008  20.293  11.792  0.00  0.00    +0.000 C 
ATOM      2  C   UNK A   3      52.777  20.943  13.132  0.00  0.00    +0.000 C 
ATOM      3  N   UNK A   3      53.604  20.997  14.135  0.00  0.00    +0.000 NA
ATOM      4  C   UNK A   3      52.979  21.687  15.139  0.00  0.00    +0.000 C 
ATOM      5  C   UNK A   3      53.469  21.956  16.369  0.00  0.00    +0.000 C 
ATOM      6  C   UNK A   3      54.774  21.579  16.864  0.00  0.00    +0.000 A 
ATOM      7  C   UNK A   3      55.285  21.801  18.136  0.00  0.00    +0.000 A 
ATOM      8  C   UNK A   3      56.606  21.335  18.176  0.00  0.00    +0.000 A 
ATOM      9  C   UNK A   3      56.905  20.768  16.951  0.00  0.00    +0.000 A 
ATOM     10  N   UNK A   3      55.777  20.926  16.157  0.00  0.00    +0.000 N 
ATOM     11  C   UNK A   3      58.124  20.128  16.525  0.00  0.00    +0.000 C 
ATOM     12  C   UNK A   3      58.332  19.584  15.302  0.00  0.00    +0.000 C 
ATOM     13  N   UNK A   3      57.446  19.506  14.233  0.00  0.00    +0.000 NA
ATOM     14  C   UNK A   3      58.092  18.886  13.274  0.00  0.00    +0.000 C 
ATOM     15  C   UNK A   3      57.590  18.513  11.895  0.00  0.00    +0.000 C 
ATOM     16  C   UNK A   3      56.328  18.817  11.521  0.00  0.00    +0.000 A 
ATOM     17  C   UNK A   3      55.711  18.512  10.235  0.00  0.00    +0.000 A 
ATOM     18  C   UNK A   3      54.465  19.020  10.209  0.00  0.00    +0.000 A 
ATOM     19  C   UNK A   3      54.175  19.671  11.494  0.00  0.00    +0.000 A 
ATOM     20  N   UNK A   3      55.335  19.475  12.213  0.00  0.00    +0.000 N 
ATOM     21  C   UNK A   3      59.469  18.513  13.625  0.00  0.00    +0.000 C 
ATOM     22  C   UNK A   3      59.562  18.948  14.876  0.00  0.00    +0.000 C 
ATOM     23  C   UNK A   3      51.675  22.064  14.625  0.00  0.00    +0.000 C 
ATOM     24  C   UNK A   3      51.494  21.608  13.387  0.00  0.00    +0.000 C 
ATOM     25  H   UNK A   3      55.733  20.590  15.207  0.00  0.00    +0.000 HD
ATOM     26  H   UNK A   3      55.520  19.802  13.153  0.00  0.00    +0.000 HD
ENDROOT
BRANCH  15  27
ATOM     27  C   UNK A   3      58.494  17.809  10.948  0.00  0.00    +0.000 A 
ATOM     28  C   UNK A   3      58.442  16.415  10.789  0.00  0.00    +0.000 A 
ATOM     29  F   UNK A   3      57.575  15.682  11.505  0.00  0.00    +0.000 F 
ATOM     30  C   UNK A   3      59.267  15.764   9.869  0.00  0.00    +0.000 A 
ATOM     31  F   UNK A   3      59.203  14.431   9.732  0.00  0.00    +0.000 F 
ATOM     32  C   UNK A   3      60.147  16.495   9.083  0.00  0.00    +0.000 A 
ATOM     33  F   UNK A   3      60.916  15.874   8.178  0.00  0.00    +0.000 F 
ATOM     34  C   UNK A   3      60.216  17.875   9.226  0.00  0.00    +0.000 A 
ATOM     35  F   UNK A   3      61.046  18.586   8.450  0.00  0.00    +0.000 F 
ATOM     36  C   UNK A   3      59.404  18.525  10.158  0.00  0.00    +0.000 A 
ATOM     37  F   UNK A   3      59.484  19.859  10.267  0.00  0.00    +0.000 F 
ENDBRANCH  15  27
BRANCH  11  38
ATOM     38  C   UNK A   3      59.244  20.020  17.509  0.00  0.00    +0.000 A 
ATOM     39  C   UNK A   3      59.511  18.820  18.181  0.00  0.00    +0.000 A 
ATOM     40  F   UNK A   3      58.745  17.740  17.966  0.00  0.00    +0.000 F 
ATOM     41  C   UNK A   3      60.568  18.729  19.083  0.00  0.00    +0.000 A 
ATOM     42  F   UNK A   3      60.794  17.577  19.727  0.00  0.00    +0.000 F 
ATOM     43  C   UNK A   3      61.382  19.827  19.314  0.00  0.00    +0.000 A 
ATOM     44  F   UNK A   3      62.408  19.743  20.174  0.00  0.00    +0.000 F 
ATOM     45  C   UNK A   3      61.134  21.021  18.653  0.00  0.00    +0.000 A 
ATOM     46  F   UNK A   3      61.926  22.079  18.877  0.00  0.00    +0.000 F 
ATOM     47  C   UNK A   3      60.072  21.121  17.762  0.00  0.00    +0.000 A 
ATOM     48  F   UNK A   3      59.842  22.295  17.154  0.00  0.00    +0.000 F 
ENDBRANCH  11  38
BRANCH   5  49
ATOM     49  C   UNK A   3      52.562  22.711  17.281  0.00  0.00    +0.000 A 
ATOM     50  C   UNK A   3      52.541  24.110  17.282  0.00  0.00    +0.000 A 
ATOM     51  F   UNK A   3      53.370  24.798  16.484  0.00  0.00    +0.000 F 
ATOM     52  C   UNK A   3      51.669  24.806  18.115  0.00  0.00    +0.000 A 
ATOM     53  F   UNK A   3      51.681  26.146  18.121  0.00  0.00    +0.000 F 
ATOM     54  C   UNK A   3      50.797  24.116  18.946  0.00  0.00    +0.000 A 
ATOM     55  F   UNK A   3      49.962  24.789  19.748  0.00  0.00    +0.000 F 
ATOM     56  C   UNK A   3      50.806  22.728  18.955  0.00  0.00    +0.000 A 
ATOM     57  F   UNK A   3      49.976  22.057  19.764  0.00  0.00    +0.000 F 
ATOM     58  C   UNK A   3      51.684  22.030  18.132  0.00  0.00    +0.000 A 
ATOM     59  F   UNK A   3      51.689  20.689  18.161  0.00  0.00    +0.000 F 
ENDBRANCH   5  49
BRANCH   1  63
ATOM     60  C   UNK A   3      49.870  20.540   8.835  0.00  0.00    +0.000 A 
ATOM     61  C   UNK A   3      49.935  19.450   9.714  0.00  0.00    +0.000 A 
ATOM     62  C   UNK A   3      50.951  19.371  10.679  0.00  0.00    +0.000 A 
ATOM     63  C   UNK A   3      51.932  20.367  10.769  0.00  0.00    +0.000 A 
ATOM     64  C   UNK A   3      51.885  21.448   9.878  0.00  0.00    +0.000 A 
ATOM     65  C   UNK A   3      50.857  21.534   8.928  0.00  0.00    +0.000 A 
BRANCH  60  67
ATOM     66  N   UNK A   3      48.995  21.639   6.827  0.00  0.00    +0.000 N 
ATOM     67  C   UNK A   3      48.801  20.647   7.780  0.00  0.00    +0.000 C 
ATOM     68  O   UNK A   3      47.834  19.889   7.781  0.00  0.00    +0.000 OA
ATOM     69  H   UNK A   3      49.885  22.125   6.789  0.00  0.00    +0.000 HD
BRANCH  66  70
ATOM     70  C   UNK A   3      48.036  21.842   5.748  0.00  0.00    +0.000 C 
BRANCH  70  71
ATOM     71  C   UNK A   3      47.662  20.535   5.046  0.00  0.00    +0.000 C 
BRANCH  71  72
ATOM     72  C   UNK A   3      46.360  20.681   4.249  0.00  0.00    +0.000 C 
BRANCH  72  73
ATOM     73  C   UNK A   3      45.421  19.485   4.453  0.00  0.00    +0.000 C 
BRANCH  73  74
ATOM     74  C   UNK A   3      44.305  19.461   3.404  0.00  0.00    +0.000 C 
BRANCH  74  75
ATOM     75  C   UNK A   3      44.346  18.203   2.539  0.00  0.00    +0.000 C 
BRANCH  75  78
ATOM     76  C   UNK A   3      46.176  16.682   3.287  0.00  0.00    +0.000 C 
ATOM     77  O   UNK A   3      47.071  17.174   2.601  0.00  0.00    +0.000 OA
ATOM     78  N   UNK A   3      44.846  17.066   3.300  0.00  0.00    +0.000 N 
ATOM     79  H   UNK A   3      44.189  16.623   3.935  0.00  0.00    +0.000 HD
BRANCH  76  80
ATOM     80  C   UNK A   3      46.613  15.582   4.255  0.00  0.00    +0.000 C 
BRANCH  80  83
ATOM     81  C   CYS A   2      48.871  16.262   5.188  0.00  0.00    +0.000 C 
ATOM     82  O   CYS A   2      48.430  16.936   6.114  0.00  0.00    +0.000 OA
ATOM     83  N   UNK A   3      48.100  15.575   4.264  0.00  0.00    +0.000 N 
ATOM     84  H   UNK A   3      48.556  14.974   3.577  0.00  0.00    +0.000 HD
BRANCH  81  85
ATOM     85  CA  CYS A   2      50.377  16.123   5.029  0.00  0.00    +0.000 C 
BRANCH  85  88
ATOM     86  C   TRP A   1      51.967  18.001   4.536  0.00  0.00    +0.000 C 
ATOM     87  O   TRP A   1      52.403  17.491   3.501  0.00  0.00    +0.000 OA
ATOM     88  N   CYS A   2      50.942  17.446   5.281  0.00  0.00    +0.000 N 
ATOM     89  H   CYS A   2      50.635  18.001   6.088  0.00  0.00    +0.000 HD
BRANCH  86  90
ATOM     90  CA  TRP A   1      52.478  19.380   5.076  0.00  0.00    +0.000 C 
BRANCH  90  91
ATOM     91  N   TRP A   1      51.319  20.307   5.184  0.00  0.00    +0.000 NA
ATOM     92  H1  TRP A   1      51.406  20.990   4.426  0.00  0.00    +0.000 HD
ATOM     93  H2  TRP A   1      51.426  20.858   6.035  0.00  0.00    +0.000 HD
ENDBRANCH  90  91
BRANCH  90  94
ATOM     94  CB  TRP A   1      53.255  19.126   6.390  0.00  0.00    +0.000 C 
BRANCH  94  95
ATOM     95  CG  TRP A   1      54.742  18.889   6.297  0.00  0.00    +0.000 A 
ATOM     96  CD1 TRP A   1      55.390  17.739   5.876  0.00  0.00    +0.000 A 
ATOM     97  NE1 TRP A   1      56.748  17.934   5.982  0.00  0.00    +0.000 N 
ATOM     98  CE2 TRP A   1      57.010  19.162   6.550  0.00  0.00    +0.000 A 
ATOM     99  CZ2 TRP A   1      58.227  19.776   6.888  0.00  0.00    +0.000 A 
ATOM    100  CH2 TRP A   1      58.167  21.032   7.505  0.00  0.00    +0.000 A 
ATOM    101  CZ3 TRP A   1      56.945  21.645   7.770  0.00  0.00    +0.000 A 
ATOM    102  CE3 TRP A   1      55.742  21.031   7.404  0.00  0.00    +0.000 A 
ATOM    103  CD2 TRP A   1      55.769  19.770   6.774  0.00  0.00    +0.000 A 
ATOM    104  HE1 TRP A   1      57.447  17.250   5.725  0.00  0.00    +0.000 HD
ENDBRANCH  94  95
ENDBRANCH  90  94
ENDBRANCH  86  90
ENDBRANCH  85  88
BRANCH  85 105
ATOM    105  CB  CYS A   2      50.964  15.016   5.915  0.00  0.00    +0.000 C 
BRANCH 105 106
ATOM    106  SG  CYS A   2      52.080  15.571   7.259  0.00  0.00    +0.000 S 
ATOM    107  HG  CYS A   2      51.186  16.336   7.906  0.00  0.00    +0.000 HD
ENDBRANCH 105 106
ENDBRANCH  85 105
ENDBRANCH  81  85
ENDBRANCH  80  83
BRANCH  80 108
ATOM    108  C   UNK A   3      46.051  15.831   5.654  0.00  0.00    +0.000 C 
BRANCH 108 109
ATOM    109  O   UNK A   3      45.737  17.194   5.947  0.00  0.00    +0.000 OA
ATOM    110  H   UNK A   3      45.377  17.319   6.839  0.00  0.00    +0.000 HD
ENDBRANCH 108 109
ENDBRANCH  80 108
ENDBRANCH  76  80
ENDBRANCH  75  78
ENDBRANCH  74  75
ENDBRANCH  73  74
ENDBRANCH  72  73
ENDBRANCH  71  72
ENDBRANCH  70  71
ENDBRANCH  66  70
ENDBRANCH  60  67
ENDBRANCH   1  63
TORSDOF 24
ENDMDL
MODEL 4
REMARK VINA RESULT:     -10.5      5.968     11.518
REMARK  Name = 
REMARK  24 active torsions:
REMARK  status: ('A' for Active; 'I' for Inactive)
REMARK    1  A    between atoms: N_1  and  CA_2
REMARK    2  A    between atoms: CA_2  and  CB_3
REMARK    3  A    between atoms: CA_2  and  C_13
REMARK    4  A    between atoms: CB_3  and  CG_4
REMARK    5  A    between atoms: N_15  and  CA_16
REMARK    6  A    between atoms: CA_16  and  CB_17
REMARK    7  A    between atoms: CA_16  and  C_19
REMARK    8  A    between atoms: CB_17  and  SG_18
REMARK    9  A    between atoms: N_21  and  C_22
REMARK   10  A    between atoms: C_22  and  C_23
REMARK   11  A    between atoms: C_22  and  C_25
REMARK   12  A    between atoms: C_23  and  O_24
REMARK   13  A    between atoms: N_27  and  C_28
REMARK   14  A    between atoms: C_28  and  C_29
REMARK   15  A    between atoms: C_29  and  C_30
REMARK   16  A    between atoms: C_30  and  C_31
REMARK   17  A    between atoms: C_31  and  C_32
REMARK   18  A    between atoms: C_32  and  C_33
REMARK   19  A    between atoms: C_33  and  N_34
REMARK   20  A    between atoms: C_35  and  C_37
REMARK   21  A    between atoms: C_40  and  C_41
REMARK   22  A    between atoms: C_45  and  C_46
REMARK   23  A    between atoms: C_62  and  C_63
REMARK   24  A    between atoms: C_77  and  C_78
REMARK                            x       y       z     vdW  Elec       q    Type
REMARK                         _______ _______ _______ _____ _____    ______ ____
ROOT
ATOM      1  C   UNK A   3      25.009  38.344  48.533  0.00  0.00    +0.000 C 
ATOM      2  C   UNK A   3      26.277  39.139  48.362  0.00  0.00    +0.000 C 
ATOM      3  N   UNK A   3      27.328  38.810  47.668  0.00  0.00    +0.000 NA
ATOM      4  C   UNK A   3      28.232  39.831  47.791  0.00  0.00    +0.000 C 
ATOM      5  C   UNK A   3      29.468  39.892  47.251  0.00  0.00    +0.000 C 
ATOM      6  C   UNK A   3      30.078  38.887  46.410  0.00  0.00    +0.000 A 
ATOM      7  C   UNK A   3      31.361  38.902  45.879  0.00  0.00    +0.000 A 
ATOM      8  C   UNK A   3      31.526  37.769  45.072  0.00  0.00    +0.000 A 
ATOM      9  C   UNK A   3      30.371  37.013  45.140  0.00  0.00    +0.000 A 
ATOM     10  N   UNK A   3      29.493  37.709  45.960  0.00  0.00    +0.000 N 
ATOM     11  C   UNK A   3      30.078  35.750  44.511  0.00  0.00    +0.000 C 
ATOM     12  C   UNK A   3      28.917  35.066  44.640  0.00  0.00    +0.000 C 
ATOM     13  N   UNK A   3      27.799  35.403  45.396  0.00  0.00    +0.000 NA
ATOM     14  C   UNK A   3      26.936  34.432  45.215  0.00  0.00    +0.000 C 
ATOM     15  C   UNK A   3      25.557  34.277  45.824  0.00  0.00    +0.000 C 
ATOM     16  C   UNK A   3      25.077  35.211  46.675  0.00  0.00    +0.000 A 
ATOM     17  C   UNK A   3      23.778  35.188  47.338  0.00  0.00    +0.000 A 
ATOM     18  C   UNK A   3      23.629  36.313  48.062  0.00  0.00    +0.000 A 
ATOM     19  C   UNK A   3      24.839  37.138  47.937  0.00  0.00    +0.000 A 
ATOM     20  N   UNK A   3      25.648  36.386  47.113  0.00  0.00    +0.000 N 
ATOM     21  C   UNK A   3      27.407  33.373  44.312  0.00  0.00    +0.000 C 
ATOM     22  C   UNK A   3      28.625  33.800  43.999  0.00  0.00    +0.000 C 
ATOM     23  C   UNK A   3      27.604  40.834  48.631  0.00  0.00    +0.000 C 
ATOM     24  C   UNK A   3      26.394  40.442  49.027  0.00  0.00    +0.000 C 
ATOM     25  H   UNK A   3      28.570  37.365  46.179  0.00  0.00    +0.000 HD
ATOM     26  H   UNK A   3      26.571  36.640  46.784  0.00  0.00    +0.000 HD
ENDROOT
BRANCH  15  27
ATOM     27  C   UNK A   3      24.731  33.091  45.483  0.00  0.00    +0.000 A 
ATOM     28  C   UNK A   3      23.819  33.118  44.415  0.00  0.00    +0.000 A 
ATOM     29  F   UNK A   3      23.665  34.233  43.683  0.00  0.00    +0.000 F 
ATOM     30  C   UNK A   3      23.074  31.987  44.076  0.00  0.00    +0.000 A 
ATOM     31  F   UNK A   3      22.206  32.034  43.053  0.00  0.00    +0.000 F 
ATOM     32  C   UNK A   3      23.237  30.806  44.785  0.00  0.00    +0.000 A 
ATOM     33  F   UNK A   3      22.545  29.712  44.439  0.00  0.00    +0.000 F 
ATOM     34  C   UNK A   3      24.132  30.757  45.846  0.00  0.00    +0.000 A 
ATOM     35  F   UNK A   3      24.311  29.611  46.518  0.00  0.00    +0.000 F 
ATOM     36  C   UNK A   3      24.865  31.893  46.199  0.00  0.00    +0.000 A 
ATOM     37  F   UNK A   3      25.730  31.814  47.220  0.00  0.00    +0.000 F 
ENDBRANCH  15  27
BRANCH  11  38
ATOM     38  C   UNK A   3      31.141  35.119  43.671  0.00  0.00    +0.000 A 
ATOM     39  C   UNK A   3      32.039  34.187  44.210  0.00  0.00    +0.000 A 
ATOM     40  F   UNK A   3      31.972  33.858  45.508  0.00  0.00    +0.000 F 
ATOM     41  C   UNK A   3      33.014  33.594  43.412  0.00  0.00    +0.000 A 
ATOM     42  F   UNK A   3      33.872  32.720  43.952  0.00  0.00    +0.000 F 
ATOM     43  C   UNK A   3      33.097  33.910  42.065  0.00  0.00    +0.000 A 
ATOM     44  F   UNK A   3      34.027  33.335  41.288  0.00  0.00    +0.000 F 
ATOM     45  C   UNK A   3      32.212  34.826  41.514  0.00  0.00    +0.000 A 
ATOM     46  F   UNK A   3      32.295  35.126  40.211  0.00  0.00    +0.000 F 
ATOM     47  C   UNK A   3      31.246  35.432  42.309  0.00  0.00    +0.000 A 
ATOM     48  F   UNK A   3      30.419  36.332  41.756  0.00  0.00    +0.000 F 
ENDBRANCH  11  38
BRANCH   5  49
ATOM     49  C   UNK A   3      30.257  41.119  47.565  0.00  0.00    +0.000 A 
ATOM     50  C   UNK A   3      31.182  41.134  48.614  0.00  0.00    +0.000 A 
ATOM     51  F   UNK A   3      31.348  40.047  49.383  0.00  0.00    +0.000 F 
ATOM     52  C   UNK A   3      31.936  42.274  48.880  0.00  0.00    +0.000 A 
ATOM     53  F   UNK A   3      32.799  42.277  49.905  0.00  0.00    +0.000 F 
ATOM     54  C   UNK A   3      31.786  43.408  48.095  0.00  0.00    +0.000 A 
ATOM     55  F   UNK A   3      32.510  44.505  48.356  0.00  0.00    +0.000 F 
ATOM     56  C   UNK A   3      30.871  43.409  47.051  0.00  0.00    +0.000 A 
ATOM     57  F   UNK A   3      30.713  44.505  46.298  0.00  0.00    +0.000 F 
ATOM     58  C   UNK A   3      30.109  42.274  46.790  0.00  0.00    +0.000 A 
ATOM     59  F   UNK A   3      29.221  42.294  45.784  0.00  0.00    +0.000 F 
ENDBRANCH   5  49
BRANCH   1  63
ATOM     60  C   UNK A   3      21.833  40.048  50.912  0.00  0.00    +0.000 A 
ATOM     61  C   UNK A   3      22.865  39.320  51.520  0.00  0.00    +0.000 A 
ATOM     62  C   UNK A   3      23.902  38.770  50.749  0.00  0.00    +0.000 A 
ATOM     63  C   UNK A   3      23.913  38.918  49.357  0.00  0.00    +0.000 A 
ATOM     64  C   UNK A   3      22.871  39.625  48.740  0.00  0.00    +0.000 A 
ATOM     65  C   UNK A   3      21.848  40.191  49.516  0.00  0.00    +0.000 A 
BRANCH  60  67
ATOM     66  N   UNK A   3      19.423  40.335  51.254  0.00  0.00    +0.000 N 
ATOM     67  C   UNK A   3      20.701  40.637  51.711  0.00  0.00    +0.000 C 
ATOM     68  O   UNK A   3      20.920  41.331  52.701  0.00  0.00    +0.000 OA
ATOM     69  H   UNK A   3      19.307  39.634  50.530  0.00  0.00    +0.000 HD
BRANCH  66  70
ATOM     70  C   UNK A   3      18.241  40.839  51.943  0.00  0.00    +0.000 C 
BRANCH  70  71
ATOM     71  C   UNK A   3      17.260  41.526  50.991  0.00  0.00    +0.000 C 
BRANCH  71  72
ATOM     72  C   UNK A   3      16.201  40.545  50.475  0.00  0.00    +0.000 C 
BRANCH  72  73
ATOM     73  C   UNK A   3      16.608  39.084  50.702  0.00  0.00    +0.000 C 
BRANCH  73  74
ATOM     74  C   UNK A   3      15.389  38.196  50.976  0.00  0.00    +0.000 C 
BRANCH  74  75
ATOM     75  C   UNK A   3      15.395  36.924  50.133  0.00  0.00    +0.000 C 
BRANCH  75  78
ATOM     76  C   UNK A   3      17.235  36.095  48.667  0.00  0.00    +0.000 C 
ATOM     77  O   UNK A   3      16.589  36.053  47.621  0.00  0.00    +0.000 OA
ATOM     78  N   UNK A   3      16.756  36.451  49.915  0.00  0.00    +0.000 N 
ATOM     79  H   UNK A   3      17.382  36.495  50.714  0.00  0.00    +0.000 HD
BRANCH  76  80
ATOM     80  C   UNK A   3      18.726  35.777  48.537  0.00  0.00    +0.000 C 
BRANCH  80  83
ATOM     81  C   CYS A   2      19.336  33.821  47.042  0.00  0.00    +0.000 C 
ATOM     82  O   CYS A   2      19.576  33.033  47.952  0.00  0.00    +0.000 OA
ATOM     83  N   UNK A   3      18.919  35.131  47.211  0.00  0.00    +0.000 N 
ATOM     84  H   UNK A   3      18.665  35.688  46.393  0.00  0.00    +0.000 HD
BRANCH  81  85
ATOM     85  CA  CYS A   2      19.468  33.347  45.603  0.00  0.00    +0.000 C 
BRANCH  85  88
ATOM     86  C   TRP A   1      18.540  31.250  44.584  0.00  0.00    +0.000 C 
ATOM     87  O   TRP A   1      19.610  30.905  44.078  0.00  0.00    +0.000 OA
ATOM     88  N   CYS A   2      18.408  32.365  45.393  0.00  0.00    +0.000 N 
ATOM     89  H   CYS A   2      17.475  32.507  45.797  0.00  0.00    +0.000 HD
BRANCH  86  90
ATOM     90  CA  TRP A   1      17.225  30.413  44.428  0.00  0.00    +0.000 C 
BRANCH  90  91
ATOM     91  N   TRP A   1      16.154  31.303  43.906  0.00  0.00    +0.000 NA
ATOM     92  H1  TRP A   1      15.258  30.910  44.211  0.00  0.00    +0.000 HD
ATOM     93  H2  TRP A   1      16.132  31.222  42.890  0.00  0.00    +0.000 HD
ENDBRANCH  90  91
BRANCH  90  94
ATOM     94  CB  TRP A   1      17.543  29.172  43.558  0.00  0.00    +0.000 C 
BRANCH  94  95
ATOM     95  CG  TRP A   1      16.573  28.016  43.597  0.00  0.00    +0.000 A 
ATOM     96  CD1 TRP A   1      16.301  27.176  44.664  0.00  0.00    +0.000 A 
ATOM     97  NE1 TRP A   1      15.383  26.234  44.261  0.00  0.00    +0.000 N 
ATOM     98  CE2 TRP A   1      15.109  26.380  42.918  0.00  0.00    +0.000 A 
ATOM     99  CZ2 TRP A   1      14.277  25.637  42.066  0.00  0.00    +0.000 A 
ATOM    100  CH2 TRP A   1      14.239  26.008  40.716  0.00  0.00    +0.000 A 
ATOM    101  CZ3 TRP A   1      14.999  27.075  40.242  0.00  0.00    +0.000 A 
ATOM    102  CE3 TRP A   1      15.804  27.821  41.110  0.00  0.00    +0.000 A 
ATOM    103  CD2 TRP A   1      15.857  27.477  42.476  0.00  0.00    +0.000 A 
ATOM    104  HE1 TRP A   1      15.007  25.509  44.858  0.00  0.00    +0.000 HD
ENDBRANCH  94  95
ENDBRANCH  90  94
ENDBRANCH  86  90
ENDBRANCH  85  88
BRANCH  85 105
ATOM    105  CB  CYS A   2      19.451  34.507  44.597  0.00  0.00    +0.000 C 
BRANCH 105 106
ATOM    106  SG  CYS A   2      20.926  35.596  44.605  0.00  0.00    +0.000 S 
ATOM    107  HG  CYS A   2      21.281  35.380  45.881  0.00  0.00    +0.000 HD
ENDBRANCH 105 106
ENDBRANCH  85 105
ENDBRANCH  81  85
ENDBRANCH  80  83
BRANCH  80 108
ATOM    108  C   UNK A   3      19.567  37.047  48.662  0.00  0.00    +0.000 C 
BRANCH 108 109
ATOM    109  O   UNK A   3      19.178  38.119  47.801  0.00  0.00    +0.000 OA
ATOM    110  H   UNK A   3      19.930  38.644  47.483  0.00  0.00    +0.000 HD
ENDBRANCH 108 109
ENDBRANCH  80 108
ENDBRANCH  76  80
ENDBRANCH  75  78
ENDBRANCH  74  75
ENDBRANCH  73  74
ENDBRANCH  72  73
ENDBRANCH  71  72
ENDBRANCH  70  71
ENDBRANCH  66  70
ENDBRANCH  60  67
ENDBRANCH   1  63
TORSDOF 24
ENDMDL
MODEL 5
REMARK VINA RESULT:     -10.4     33.220     39.831
REMARK  Name = 
REMARK  24 active torsions:
REMARK  status: ('A' for Active; 'I' for Inactive)
REMARK    1  A    between atoms: N_1  and  CA_2
REMARK    2  A    between atoms: CA_2  and  CB_3
REMARK    3  A    between atoms: CA_2  and  C_13
REMARK    4  A    between atoms: CB_3  and  CG_4
REMARK    5  A    between atoms: N_15  and  CA_16
REMARK    6  A    between atoms: CA_16  and  CB_17
REMARK    7  A    between atoms: CA_16  and  C_19
REMARK    8  A    between atoms: CB_17  and  SG_18
REMARK    9  A    between atoms: N_21  and  C_22
REMARK   10  A    between atoms: C_22  and  C_23
REMARK   11  A    between atoms: C_22  and  C_25
REMARK   12  A    between atoms: C_23  and  O_24
REMARK   13  A    between atoms: N_27  and  C_28
REMARK   14  A    between atoms: C_28  and  C_29
REMARK   15  A    between atoms: C_29  and  C_30
REMARK   16  A    between atoms: C_30  and  C_31
REMARK   17  A    between atoms: C_31  and  C_32
REMARK   18  A    between atoms: C_32  and  C_33
REMARK   19  A    between atoms: C_33  and  N_34
REMARK   20  A    between atoms: C_35  and  C_37
REMARK   21  A    between atoms: C_40  and  C_41
REMARK   22  A    between atoms: C_45  and  C_46
REMARK   23  A    between atoms: C_62  and  C_63
REMARK   24  A    between atoms: C_77  and  C_78
REMARK                            x       y       z     vdW  Elec       q    Type
REMARK                         _______ _______ _______ _____ _____    ______ ____
ROOT
ATOM      1  C   UNK A   3      46.423  10.941  47.843  0.00  0.00    +0.000 C 
ATOM      2  C   UNK A   3      46.204   9.851  48.860  0.00  0.00    +0.000 C 
ATOM      3  N   UNK A   3      46.956   9.566  49.884  0.00  0.00    +0.000 NA
ATOM      4  C   UNK A   3      46.372   8.510  50.533  0.00  0.00    +0.000 C 
ATOM      5  C   UNK A   3      46.832   7.878  51.635  0.00  0.00    +0.000 C 
ATOM      6  C   UNK A   3      48.035   8.211  52.364  0.00  0.00    +0.000 A 
ATOM      7  C   UNK A   3      48.556   7.552  53.470  0.00  0.00    +0.000 A 
ATOM      8  C   UNK A   3      49.697   8.238  53.905  0.00  0.00    +0.000 A 
ATOM      9  C   UNK A   3      49.928   9.291  53.041  0.00  0.00    +0.000 A 
ATOM     10  N   UNK A   3      48.904   9.265  52.104  0.00  0.00    +0.000 N 
ATOM     11  C   UNK A   3      51.000  10.255  53.057  0.00  0.00    +0.000 C 
ATOM     12  C   UNK A   3      51.160  11.256  52.159  0.00  0.00    +0.000 C 
ATOM     13  N   UNK A   3      50.372  11.554  51.052  0.00  0.00    +0.000 NA
ATOM     14  C   UNK A   3      50.929  12.598  50.484  0.00  0.00    +0.000 C 
ATOM     15  C   UNK A   3      50.495  13.324  49.227  0.00  0.00    +0.000 C 
ATOM     16  C   UNK A   3      49.408  12.909  48.539  0.00  0.00    +0.000 A 
ATOM     17  C   UNK A   3      48.883  13.504  47.315  0.00  0.00    +0.000 A 
ATOM     18  C   UNK A   3      47.759  12.858  46.954  0.00  0.00    +0.000 A 
ATOM     19  C   UNK A   3      47.488  11.776  47.912  0.00  0.00    +0.000 A 
ATOM     20  N   UNK A   3      48.538  11.874  48.800  0.00  0.00    +0.000 N 
ATOM     21  C   UNK A   3      52.128  13.087  51.177  0.00  0.00    +0.000 C 
ATOM     22  C   UNK A   3      52.235  12.228  52.183  0.00  0.00    +0.000 C 
ATOM     23  C   UNK A   3      45.165   8.193  49.794  0.00  0.00    +0.000 C 
ATOM     24  C   UNK A   3      45.025   8.987  48.734  0.00  0.00    +0.000 C 
ATOM     25  H   UNK A   3      48.843   9.933  51.351  0.00  0.00    +0.000 HD
ATOM     26  H   UNK A   3      48.686  11.297  49.619  0.00  0.00    +0.000 HD
ENDROOT
BRANCH  15  27
ATOM     27  C   UNK A   3      51.270  14.498  48.751  0.00  0.00    +0.000 A 
ATOM     28  C   UNK A   3      52.344  14.352  47.858  0.00  0.00    +0.000 A 
ATOM     29  F   UNK A   3      52.702  13.133  47.423  0.00  0.00    +0.000 F 
ATOM     30  C   UNK A   3      53.043  15.463  47.384  0.00  0.00    +0.000 A 
ATOM     31  F   UNK A   3      54.067  15.302  46.532  0.00  0.00    +0.000 F 
ATOM     32  C   UNK A   3      52.673  16.741  47.781  0.00  0.00    +0.000 A 
ATOM     33  F   UNK A   3      53.324  17.809  47.301  0.00  0.00    +0.000 F 
ATOM     34  C   UNK A   3      51.616  16.909  48.665  0.00  0.00    +0.000 A 
ATOM     35  F   UNK A   3      51.239  18.142  49.031  0.00  0.00    +0.000 F 
ATOM     36  C   UNK A   3      50.927  15.796  49.155  0.00  0.00    +0.000 A 
ATOM     37  F   UNK A   3      49.902  15.989  49.999  0.00  0.00    +0.000 F 
ENDBRANCH  15  27
BRANCH  11  38
ATOM     38  C   UNK A   3      52.039  10.135  54.123  0.00  0.00    +0.000 A 
ATOM     39  C   UNK A   3      51.871  10.738  55.377  0.00  0.00    +0.000 A 
ATOM     40  F   UNK A   3      50.771  11.460  55.637  0.00  0.00    +0.000 F 
ATOM     41  C   UNK A   3      52.841  10.605  56.367  0.00  0.00    +0.000 A 
ATOM     42  F   UNK A   3      52.667  11.204  57.552  0.00  0.00    +0.000 F 
ATOM     43  C   UNK A   3      53.982   9.855  56.127  0.00  0.00    +0.000 A 
ATOM     44  F   UNK A   3      54.916   9.714  57.080  0.00  0.00    +0.000 F 
ATOM     45  C   UNK A   3      54.162   9.247  54.893  0.00  0.00    +0.000 A 
ATOM     46  F   UNK A   3      55.265   8.521  54.667  0.00  0.00    +0.000 F 
ATOM     47  C   UNK A   3      53.203   9.389  53.896  0.00  0.00    +0.000 A 
ATOM     48  F   UNK A   3      53.414   8.809  52.704  0.00  0.00    +0.000 F 
ENDBRANCH  11  38
BRANCH   5  49
ATOM     49  C   UNK A   3      46.006   6.737  52.124  0.00  0.00    +0.000 A 
ATOM     50  C   UNK A   3      46.238   5.433  51.675  0.00  0.00    +0.000 A 
ATOM     51  F   UNK A   3      47.191   5.192  50.762  0.00  0.00    +0.000 F 
ATOM     52  C   UNK A   3      45.482   4.369  52.161  0.00  0.00    +0.000 A 
ATOM     53  F   UNK A   3      45.702   3.130  51.700  0.00  0.00    +0.000 F 
ATOM     54  C   UNK A   3      44.494   4.592  53.110  0.00  0.00    +0.000 A 
ATOM     55  F   UNK A   3      43.766   3.567  53.573  0.00  0.00    +0.000 F 
ATOM     56  C   UNK A   3      44.252   5.881  53.565  0.00  0.00    +0.000 A 
ATOM     57  F   UNK A   3      43.292   6.103  54.472  0.00  0.00    +0.000 F 
ATOM     58  C   UNK A   3      44.999   6.947  53.073  0.00  0.00    +0.000 A 
ATOM     59  F   UNK A   3      44.745   8.188  53.514  0.00  0.00    +0.000 F 
ENDBRANCH   5  49
BRANCH   1  63
ATOM     60  C   UNK A   3      43.490  11.428  44.711  0.00  0.00    +0.000 A 
ATOM     61  C   UNK A   3      44.571  10.553  44.542  0.00  0.00    +0.000 A 
ATOM     62  C   UNK A   3      45.523  10.390  45.561  0.00  0.00    +0.000 A 
ATOM     63  C   UNK A   3      45.422  11.112  46.756  0.00  0.00    +0.000 A 
ATOM     64  C   UNK A   3      44.355  12.006  46.922  0.00  0.00    +0.000 A 
ATOM     65  C   UNK A   3      43.395  12.152  45.910  0.00  0.00    +0.000 A 
BRANCH  60  67
ATOM     66  N   UNK A   3      42.422  12.910  43.076  0.00  0.00    +0.000 N 
ATOM     67  C   UNK A   3      42.461  11.636  43.631  0.00  0.00    +0.000 C 
ATOM     68  O   UNK A   3      41.722  10.720  43.277  0.00  0.00    +0.000 OA
ATOM     69  H   UNK A   3      43.158  13.572  43.298  0.00  0.00    +0.000 HD
BRANCH  66  70
ATOM     70  C   UNK A   3      41.476  13.238  42.017  0.00  0.00    +0.000 C 
BRANCH  70  71
ATOM     71  C   UNK A   3      41.622  14.681  41.530  0.00  0.00    +0.000 C 
BRANCH  71  72
ATOM     72  C   UNK A   3      42.146  14.735  40.089  0.00  0.00    +0.000 C 
BRANCH  72  73
ATOM     73  C   UNK A   3      42.874  16.051  39.789  0.00  0.00    +0.000 C 
BRANCH  73  74
ATOM     74  C   UNK A   3      43.721  15.947  38.517  0.00  0.00    +0.000 C 
BRANCH  74  75
ATOM     75  C   UNK A   3      44.671  17.132  38.351  0.00  0.00    +0.000 C 
BRANCH  75  78
ATOM     76  C   UNK A   3      46.110  18.376  39.965  0.00  0.00    +0.000 C 
ATOM     77  O   UNK A   3      45.871  19.506  39.541  0.00  0.00    +0.000 OA
ATOM     78  N   UNK A   3      45.629  17.186  39.448  0.00  0.00    +0.000 N 
ATOM     79  H   UNK A   3      45.851  16.303  39.897  0.00  0.00    +0.000 HD
BRANCH  76  80
ATOM     80  C   UNK A   3      46.977  18.311  41.223  0.00  0.00    +0.000 C 
BRANCH  80  83
ATOM     81  C   CYS A   2      46.399  18.796  43.644  0.00  0.00    +0.000 C 
ATOM     82  O   CYS A   2      47.488  19.276  43.944  0.00  0.00    +0.000 OA
ATOM     83  N   UNK A   3      46.054  18.323  42.389  0.00  0.00    +0.000 N 
ATOM     84  H   UNK A   3      45.096  18.015  42.213  0.00  0.00    +0.000 HD
BRANCH  81  85
ATOM     85  CA  CYS A   2      45.309  18.724  44.703  0.00  0.00    +0.000 C 
BRANCH  85  88
ATOM     86  C   TRP A   1      45.598  16.766  46.246  0.00  0.00    +0.000 C 
ATOM     87  O   TRP A   1      44.908  16.003  45.566  0.00  0.00    +0.000 OA
ATOM     88  N   CYS A   2      45.901  18.060  45.861  0.00  0.00    +0.000 N 
ATOM     89  H   CYS A   2      46.533  18.569  46.490  0.00  0.00    +0.000 HD
BRANCH  86  90
ATOM     90  CA  TRP A   1      46.274  16.321  47.587  0.00  0.00    +0.000 C 
BRANCH  90  91
ATOM     91  N   TRP A   1      46.862  17.520  48.243  0.00  0.00    +0.000 NA
ATOM     92  H1  TRP A   1      46.864  18.274  47.550  0.00  0.00    +0.000 HD
ATOM     93  H2  TRP A   1      47.849  17.338  48.422  0.00  0.00    +0.000 HD
ENDBRANCH  90  91
BRANCH  90  94
ATOM     94  CB  TRP A   1      45.225  15.550  48.424  0.00  0.00    +0.000 C 
BRANCH  94  95
ATOM     95  CG  TRP A   1      45.721  14.714  49.579  0.00  0.00    +0.000 A 
ATOM     96  CD1 TRP A   1      46.963  14.767  50.189  0.00  0.00    +0.000 A 
ATOM     97  NE1 TRP A   1      47.012  13.807  51.175  0.00  0.00    +0.000 N 
ATOM     98  CE2 TRP A   1      45.854  13.059  51.168  0.00  0.00    +0.000 A 
ATOM     99  CZ2 TRP A   1      45.468  11.960  51.953  0.00  0.00    +0.000 A 
ATOM    100  CH2 TRP A   1      44.227  11.374  51.676  0.00  0.00    +0.000 A 
ATOM    101  CZ3 TRP A   1      43.410  11.865  50.660  0.00  0.00    +0.000 A 
ATOM    102  CE3 TRP A   1      43.799  12.977  49.905  0.00  0.00    +0.000 A 
ATOM    103  CD2 TRP A   1      45.039  13.595  50.165  0.00  0.00    +0.000 A 
ATOM    104  HE1 TRP A   1      47.806  13.647  51.779  0.00  0.00    +0.000 HD
ENDBRANCH  94  95
ENDBRANCH  90  94
ENDBRANCH  86  90
ENDBRANCH  85  88
BRANCH  85 105
ATOM    105  CB  CYS A   2      44.701  20.098  45.016  0.00  0.00    +0.000 C 
BRANCH 105 106
ATOM    106  SG  CYS A   2      45.068  20.777  46.679  0.00  0.00    +0.000 S 
ATOM    107  HG  CYS A   2      46.386  20.954  46.494  0.00  0.00    +0.000 HD
ENDBRANCH 105 106
ENDBRANCH  85 105
ENDBRANCH  81  85
ENDBRANCH  80  83
BRANCH  80 108
ATOM    108  C   UNK A   3      47.850  17.057  41.220  0.00  0.00    +0.000 C 
BRANCH 108 109
ATOM    109  O   UNK A   3      47.176  15.848  41.574  0.00  0.00    +0.000 OA
ATOM    110  H   UNK A   3      46.624  15.938  42.367  0.00  0.00    +0.000 HD
ENDBRANCH 108 109
ENDBRANCH  80 108
ENDBRANCH  76  80
ENDBRANCH  75  78
ENDBRANCH  74  75
ENDBRANCH  73  74
ENDBRANCH  72  73
ENDBRANCH  71  72
ENDBRANCH  70  71
ENDBRANCH  66  70
ENDBRANCH  60  67
ENDBRANCH   1  63
TORSDOF 24
ENDMDL
MODEL 6
REMARK VINA RESULT:     -10.4     41.232     46.988
REMARK  Name = 
REMARK  24 active torsions:
REMARK  status: ('A' for Active; 'I' for Inactive)
REMARK    1  A    between atoms: N_1  and  CA_2
REMARK    2  A    between atoms: CA_2  and  CB_3
REMARK    3  A    between atoms: CA_2  and  C_13
REMARK    4  A    between atoms: CB_3  and  CG_4
REMARK    5  A    between atoms: N_15  and  CA_16
REMARK    6  A    between atoms: CA_16  and  CB_17
REMARK    7  A    between atoms: CA_16  and  C_19
REMARK    8  A    between atoms: CB_17  and  SG_18
REMARK    9  A    between atoms: N_21  and  C_22
REMARK   10  A    between atoms: C_22  and  C_23
REMARK   11  A    between atoms: C_22  and  C_25
REMARK   12  A    between atoms: C_23  and  O_24
REMARK   13  A    between atoms: N_27  and  C_28
REMARK   14  A    between atoms: C_28  and  C_29
REMARK   15  A    between atoms: C_29  and  C_30
REMARK   16  A    between atoms: C_30  and  C_31
REMARK   17  A    between atoms: C_31  and  C_32
REMARK   18  A    between atoms: C_32  and  C_33
REMARK   19  A    between atoms: C_33  and  N_34
REMARK   20  A    between atoms: C_35  and  C_37
REMARK   21  A    between atoms: C_40  and  C_41
REMARK   22  A    between atoms: C_45  and  C_46
REMARK   23  A    between atoms: C_62  and  C_63
REMARK   24  A    between atoms: C_77  and  C_78
REMARK                            x       y       z     vdW  Elec       q    Type
REMARK                         _______ _______ _______ _____ _____    ______ ____
ROOT
ATOM      1  C   UNK A   3      21.533  19.382   5.193  0.00  0.00    +0.000 C 
ATOM      2  C   UNK A   3      21.315  20.348   4.058  0.00  0.00    +0.000 C 
ATOM      3  N   UNK A   3      20.186  20.865   3.669  0.00  0.00    +0.000 NA
ATOM      4  C   UNK A   3      20.461  21.689   2.610  0.00  0.00    +0.000 C 
ATOM      5  C   UNK A   3      19.575  22.408   1.887  0.00  0.00    +0.000 C 
ATOM      6  C   UNK A   3      18.147  22.464   2.107  0.00  0.00    +0.000 A 
ATOM      7  C   UNK A   3      17.208  23.157   1.353  0.00  0.00    +0.000 A 
ATOM      8  C   UNK A   3      15.949  22.995   1.945  0.00  0.00    +0.000 A 
ATOM      9  C   UNK A   3      16.085  22.155   3.035  0.00  0.00    +0.000 A 
ATOM     10  N   UNK A   3      17.434  21.839   3.124  0.00  0.00    +0.000 N 
ATOM     11  C   UNK A   3      15.069  21.670   3.935  0.00  0.00    +0.000 C 
ATOM     12  C   UNK A   3      15.287  20.834   4.978  0.00  0.00    +0.000 C 
ATOM     13  N   UNK A   3      16.488  20.263   5.387  0.00  0.00    +0.000 NA
ATOM     14  C   UNK A   3      16.197  19.523   6.430  0.00  0.00    +0.000 C 
ATOM     15  C   UNK A   3      17.129  18.658   7.255  0.00  0.00    +0.000 C 
ATOM     16  C   UNK A   3      18.442  18.579   6.945  0.00  0.00    +0.000 A 
ATOM     17  C   UNK A   3      19.446  17.784   7.642  0.00  0.00    +0.000 A 
ATOM     18  C   UNK A   3      20.651  18.004   7.083  0.00  0.00    +0.000 A 
ATOM     19  C   UNK A   3      20.507  18.943   5.962  0.00  0.00    +0.000 A 
ATOM     20  N   UNK A   3      19.154  19.206   5.946  0.00  0.00    +0.000 N 
ATOM     21  C   UNK A   3      14.778  19.552   6.808  0.00  0.00    +0.000 C 
ATOM     22  C   UNK A   3      14.263  20.355   5.884  0.00  0.00    +0.000 C 
ATOM     23  C   UNK A   3      21.896  21.628   2.406  0.00  0.00    +0.000 C 
ATOM     24  C   UNK A   3      22.471  20.792   3.270  0.00  0.00    +0.000 C 
ATOM     25  H   UNK A   3      17.801  21.230   3.839  0.00  0.00    +0.000 HD
ATOM     26  H   UNK A   3      18.672  19.832   5.313  0.00  0.00    +0.000 HD
ENDROOT
BRANCH  15  27
ATOM     27  C   UNK A   3      16.593  17.894   8.411  0.00  0.00    +0.000 A 
ATOM     28  C   UNK A   3      16.315  16.521   8.314  0.00  0.00    +0.000 A 
ATOM     29  F   UNK A   3      16.520  15.868   7.159  0.00  0.00    +0.000 F 
ATOM     30  C   UNK A   3      15.849  15.801   9.415  0.00  0.00    +0.000 A 
ATOM     31  F   UNK A   3      15.589  14.489   9.302  0.00  0.00    +0.000 F 
ATOM     32  C   UNK A   3      15.666  16.435  10.636  0.00  0.00    +0.000 A 
ATOM     33  F   UNK A   3      15.249  15.737  11.701  0.00  0.00    +0.000 F 
ATOM     34  C   UNK A   3      15.931  17.793  10.754  0.00  0.00    +0.000 A 
ATOM     35  F   UNK A   3      15.780  18.404  11.938  0.00  0.00    +0.000 F 
ATOM     36  C   UNK A   3      16.381  18.519   9.648  0.00  0.00    +0.000 A 
ATOM     37  F   UNK A   3      16.640  19.826   9.793  0.00  0.00    +0.000 F 
ENDBRANCH  15  27
BRANCH  11  38
ATOM     38  C   UNK A   3      13.655  22.088   3.691  0.00  0.00    +0.000 A 
ATOM     39  C   UNK A   3      13.075  23.147   4.402  0.00  0.00    +0.000 A 
ATOM     40  F   UNK A   3      13.781  23.799   5.338  0.00  0.00    +0.000 F 
ATOM     41  C   UNK A   3      11.762  23.537   4.153  0.00  0.00    +0.000 A 
ATOM     42  F   UNK A   3      11.222  24.540   4.857  0.00  0.00    +0.000 F 
ATOM     43  C   UNK A   3      11.015  22.887   3.184  0.00  0.00    +0.000 A 
ATOM     44  F   UNK A   3       9.752  23.263   2.932  0.00  0.00    +0.000 F 
ATOM     45  C   UNK A   3      11.576  21.839   2.467  0.00  0.00    +0.000 A 
ATOM     46  F   UNK A   3      10.851  21.216   1.528  0.00  0.00    +0.000 F 
ATOM     47  C   UNK A   3      12.882  21.437   2.721  0.00  0.00    +0.000 A 
ATOM     48  F   UNK A   3      13.391  20.406   2.030  0.00  0.00    +0.000 F 
ENDBRANCH  11  38
BRANCH   5  49
ATOM     49  C   UNK A   3      20.146  23.209   0.766  0.00  0.00    +0.000 A 
ATOM     50  C   UNK A   3      20.727  24.460   0.996  0.00  0.00    +0.000 A 
ATOM     51  F   UNK A   3      20.746  24.980   2.233  0.00  0.00    +0.000 F 
ATOM     52  C   UNK A   3      21.286  25.187  -0.052  0.00  0.00    +0.000 A 
ATOM     53  F   UNK A   3      21.815  26.396   0.183  0.00  0.00    +0.000 F 
ATOM     54  C   UNK A   3      21.284  24.670  -1.339  0.00  0.00    +0.000 A 
ATOM     55  F   UNK A   3      21.819  25.373  -2.346  0.00  0.00    +0.000 F 
ATOM     56  C   UNK A   3      20.710  23.429  -1.583  0.00  0.00    +0.000 A 
ATOM     57  F   UNK A   3      20.695  22.930  -2.826  0.00  0.00    +0.000 F 
ATOM     58  C   UNK A   3      20.142  22.705  -0.539  0.00  0.00    +0.000 A 
ATOM     59  F   UNK A   3      19.582  21.513  -0.793  0.00  0.00    +0.000 F 
ENDBRANCH   5  49
BRANCH   1  63
ATOM     60  C   UNK A   3      25.571  18.093   6.023  0.00  0.00    +0.000 A 
ATOM     61  C   UNK A   3      24.633  17.197   5.490  0.00  0.00    +0.000 A 
ATOM     62  C   UNK A   3      23.322  17.616   5.215  0.00  0.00    +0.000 A 
ATOM     63  C   UNK A   3      22.919  18.929   5.487  0.00  0.00    +0.000 A 
ATOM     64  C   UNK A   3      23.845  19.823   6.041  0.00  0.00    +0.000 A 
ATOM     65  C   UNK A   3      25.160  19.407   6.296  0.00  0.00    +0.000 A 
BRANCH  60  67
ATOM     66  N   UNK A   3      27.516  16.692   5.513  0.00  0.00    +0.000 N 
ATOM     67  C   UNK A   3      26.980  17.670   6.342  0.00  0.00    +0.000 C 
ATOM     68  O   UNK A   3      27.596  18.177   7.276  0.00  0.00    +0.000 OA
ATOM     69  H   UNK A   3      27.018  16.428   4.669  0.00  0.00    +0.000 HD
BRANCH  66  70
ATOM     70  C   UNK A   3      28.873  16.200   5.712  0.00  0.00    +0.000 C 
BRANCH  70  71
ATOM     71  C   UNK A   3      29.886  16.894   4.799  0.00  0.00    +0.000 C 
BRANCH  71  72
ATOM     72  C   UNK A   3      29.345  17.039   3.371  0.00  0.00    +0.000 C 
BRANCH  72  73
ATOM     73  C   UNK A   3      28.505  18.311   3.198  0.00  0.00    +0.000 C 
BRANCH  73  74
ATOM     74  C   UNK A   3      27.560  18.202   1.997  0.00  0.00    +0.000 C 
BRANCH  74  75
ATOM     75  C   UNK A   3      26.097  18.085   2.417  0.00  0.00    +0.000 C 
BRANCH  75  78
ATOM     76  C   UNK A   3      24.218  16.593   1.733  0.00  0.00    +0.000 C 
ATOM     77  O   UNK A   3      23.324  17.436   1.799  0.00  0.00    +0.000 OA
ATOM     78  N   UNK A   3      25.553  16.785   2.044  0.00  0.00    +0.000 N 
ATOM     79  H   UNK A   3      26.224  16.034   1.917  0.00  0.00    +0.000 HD
BRANCH  76  80
ATOM     80  C   UNK A   3      23.799  15.225   1.193  0.00  0.00    +0.000 C 
BRANCH  80  83
ATOM     81  C   CYS A   2      23.241  14.130   3.411  0.00  0.00    +0.000 C 
ATOM     82  O   CYS A   2      24.390  14.121   3.843  0.00  0.00    +0.000 OA
ATOM     83  N   UNK A   3      22.856  14.637   2.181  0.00  0.00    +0.000 N 
ATOM     84  H   UNK A   3      21.864  14.675   1.941  0.00  0.00    +0.000 HD
BRANCH  81  85
ATOM     85  CA  CYS A   2      22.123  13.576   4.280  0.00  0.00    +0.000 C 
BRANCH  85  88
ATOM     86  C   TRP A   1      22.439  14.044   6.726  0.00  0.00    +0.000 C 
ATOM     87  O   TRP A   1      23.017  12.980   6.955  0.00  0.00    +0.000 OA
ATOM     88  N   CYS A   2      22.049  14.437   5.457  0.00  0.00    +0.000 N 
ATOM     89  H   CYS A   2      21.629  15.372   5.396  0.00  0.00    +0.000 HD
BRANCH  86  90
ATOM     90  CA  TRP A   1      22.153  15.106   7.841  0.00  0.00    +0.000 C 
BRANCH  90  91
ATOM     91  N   TRP A   1      21.199  14.521   8.821  0.00  0.00    +0.000 NA
ATOM     92  H1  TRP A   1      20.268  14.554   8.394  0.00  0.00    +0.000 HD
ATOM     93  H2  TRP A   1      21.132  15.149   9.621  0.00  0.00    +0.000 HD
ENDBRANCH  90  91
BRANCH  90  94
ATOM     94  CB  TRP A   1      23.509  15.569   8.426  0.00  0.00    +0.000 C 
BRANCH  94  95
ATOM     95  CG  TRP A   1      23.493  16.669   9.460  0.00  0.00    +0.000 A 
ATOM     96  CD1 TRP A   1      23.627  18.031   9.248  0.00  0.00    +0.000 A 
ATOM     97  NE1 TRP A   1      23.595  18.672  10.465  0.00  0.00    +0.000 N 
ATOM     98  CE2 TRP A   1      23.530  17.751  11.487  0.00  0.00    +0.000 A 
ATOM     99  CZ2 TRP A   1      23.515  17.926  12.880  0.00  0.00    +0.000 A 
ATOM    100  CH2 TRP A   1      23.490  16.773  13.676  0.00  0.00    +0.000 A 
ATOM    101  CZ3 TRP A   1      23.479  15.504  13.102  0.00  0.00    +0.000 A 
ATOM    102  CE3 TRP A   1      23.468  15.347  11.711  0.00  0.00    +0.000 A 
ATOM    103  CD2 TRP A   1      23.485  16.488  10.884  0.00  0.00    +0.000 A 
ATOM    104  HE1 TRP A   1      23.660  19.674  10.586  0.00  0.00    +0.000 HD
ENDBRANCH  94  95
ENDBRANCH  90  94
ENDBRANCH  86  90
ENDBRANCH  85  88
BRANCH  85 105
ATOM    105  CB  CYS A   2      20.796  13.445   3.520  0.00  0.00    +0.000 C 
BRANCH 105 106
ATOM    106  SG  CYS A   2      19.454  12.555   4.396  0.00  0.00    +0.000 S 
ATOM    107  HG  CYS A   2      18.644  13.611   4.567  0.00  0.00    +0.000 HD
ENDBRANCH 105 106
ENDBRANCH  85 105
ENDBRANCH  81  85
ENDBRANCH  80  83
BRANCH  80 108
ATOM    108  C   UNK A   3      23.147  15.358  -0.183  0.00  0.00    +0.000 C 
BRANCH 108 109
ATOM    109  O   UNK A   3      23.548  16.505  -0.936  0.00  0.00    +0.000 OA
ATOM    110  H   UNK A   3      24.476  16.471  -1.218  0.00  0.00    +0.000 HD
ENDBRANCH 108 109
ENDBRANCH  80 108
ENDBRANCH  76  80
ENDBRANCH  75  78
ENDBRANCH  74  75
ENDBRANCH  73  74
ENDBRANCH  72  73
ENDBRANCH  71  72
ENDBRANCH  70  71
ENDBRANCH  66  70
ENDBRANCH  60  67
ENDBRANCH   1  63
TORSDOF 24
ENDMDL
MODEL 7
REMARK VINA RESULT:     -10.3     44.138     55.534
REMARK  Name = 
REMARK  24 active torsions:
REMARK  status: ('A' for Active; 'I' for Inactive)
REMARK    1  A    between atoms: N_1  and  CA_2
REMARK    2  A    between atoms: CA_2  and  CB_3
REMARK    3  A    between atoms: CA_2  and  C_13
REMARK    4  A    between atoms: CB_3  and  CG_4
REMARK    5  A    between atoms: N_15  and  CA_16
REMARK    6  A    between atoms: CA_16  and  CB_17
REMARK    7  A    between atoms: CA_16  and  C_19
REMARK    8  A    between atoms: CB_17  and  SG_18
REMARK    9  A    between atoms: N_21  and  C_22
REMARK   10  A    between atoms: C_22  and  C_23
REMARK   11  A    between atoms: C_22  and  C_25
REMARK   12  A    between atoms: C_23  and  O_24
REMARK   13  A    between atoms: N_27  and  C_28
REMARK   14  A    between atoms: C_28  and  C_29
REMARK   15  A    between atoms: C_29  and  C_30
REMARK   16  A    between atoms: C_30  and  C_31
REMARK   17  A    between atoms: C_31  and  C_32
REMARK   18  A    between atoms: C_32  and  C_33
REMARK   19  A    between atoms: C_33  and  N_34
REMARK   20  A    between atoms: C_35  and  C_37
REMARK   21  A    between atoms: C_40  and  C_41
REMARK   22  A    between atoms: C_45  and  C_46
REMARK   23  A    between atoms: C_62  and  C_63
REMARK   24  A    between atoms: C_77  and  C_78
REMARK                            x       y       z     vdW  Elec       q    Type
REMARK                         _______ _______ _______ _____ _____    ______ ____
ROOT
ATOM      1  C   UNK A   3      24.653   8.559   1.318  0.00  0.00    +0.000 C 
ATOM      2  C   UNK A   3      23.627   8.044   0.342  0.00  0.00    +0.000 C 
ATOM      3  N   UNK A   3      23.833   7.264  -0.679  0.00  0.00    +0.000 NA
ATOM      4  C   UNK A   3      22.619   7.051  -1.278  0.00  0.00    +0.000 C 
ATOM      5  C   UNK A   3      22.376   6.319  -2.386  0.00  0.00    +0.000 C 
ATOM      6  C   UNK A   3      23.360   5.590  -3.155  0.00  0.00    +0.000 A 
ATOM      7  C   UNK A   3      23.147   4.868  -4.322  0.00  0.00    +0.000 A 
ATOM      8  C   UNK A   3      24.353   4.267  -4.704  0.00  0.00    +0.000 A 
ATOM      9  C   UNK A   3      25.336   4.657  -3.814  0.00  0.00    +0.000 A 
ATOM     10  N   UNK A   3      24.715   5.465  -2.870  0.00  0.00    +0.000 N 
ATOM     11  C   UNK A   3      26.739   4.326  -3.813  0.00  0.00    +0.000 C 
ATOM     12  C   UNK A   3      27.642   4.762  -2.903  0.00  0.00    +0.000 C 
ATOM     13  N   UNK A   3      27.432   5.612  -1.822  0.00  0.00    +0.000 NA
ATOM     14  C   UNK A   3      28.601   5.753  -1.243  0.00  0.00    +0.000 C 
ATOM     15  C   UNK A   3      28.952   6.592  -0.032  0.00  0.00    +0.000 C 
ATOM     16  C   UNK A   3      28.002   7.322   0.593  0.00  0.00    +0.000 A 
ATOM     17  C   UNK A   3      28.197   8.177   1.758  0.00  0.00    +0.000 A 
ATOM     18  C   UNK A   3      27.013   8.696   2.132  0.00  0.00    +0.000 A 
ATOM     19  C   UNK A   3      25.964   8.230   1.214  0.00  0.00    +0.000 A 
ATOM     20  N   UNK A   3      26.656   7.440   0.322  0.00  0.00    +0.000 N 
ATOM     21  C   UNK A   3      29.683   4.997  -1.888  0.00  0.00    +0.000 C 
ATOM     22  C   UNK A   3      29.050   4.420  -2.903  0.00  0.00    +0.000 C 
ATOM     23  C   UNK A   3      21.642   7.782  -0.492  0.00  0.00    +0.000 C 
ATOM     24  C   UNK A   3      22.223   8.431   0.516  0.00  0.00    +0.000 C 
ATOM     25  H   UNK A   3      25.219   5.887  -2.105  0.00  0.00    +0.000 HD
ATOM     26  H   UNK A   3      26.261   6.926  -0.457  0.00  0.00    +0.000 HD
ENDROOT
BRANCH  15  27
ATOM     27  C   UNK A   3      30.350   6.611   0.470  0.00  0.00    +0.000 A 
ATOM     28  C   UNK A   3      31.342   7.383  -0.157  0.00  0.00    +0.000 A 
ATOM     29  F   UNK A   3      31.045   8.116  -1.241  0.00  0.00    +0.000 F 
ATOM     30  C   UNK A   3      32.644   7.426   0.344  0.00  0.00    +0.000 A 
ATOM     31  F   UNK A   3      33.578   8.169  -0.271  0.00  0.00    +0.000 F 
ATOM     32  C   UNK A   3      32.976   6.713   1.487  0.00  0.00    +0.000 A 
ATOM     33  F   UNK A   3      34.218   6.780   1.985  0.00  0.00    +0.000 F 
ATOM     34  C   UNK A   3      32.012   5.941   2.122  0.00  0.00    +0.000 A 
ATOM     35  F   UNK A   3      32.322   5.272   3.241  0.00  0.00    +0.000 F 
ATOM     36  C   UNK A   3      30.712   5.882   1.612  0.00  0.00    +0.000 A 
ATOM     37  F   UNK A   3      29.799   5.138   2.252  0.00  0.00    +0.000 F 
ENDBRANCH  15  27
BRANCH  11  38
ATOM     38  C   UNK A   3      27.258   3.458  -4.913  0.00  0.00    +0.000 A 
ATOM     39  C   UNK A   3      27.671   4.000  -6.137  0.00  0.00    +0.000 A 
ATOM     40  F   UNK A   3      27.587   5.322  -6.353  0.00  0.00    +0.000 F 
ATOM     41  C   UNK A   3      28.168   3.182  -7.148  0.00  0.00    +0.000 A 
ATOM     42  F   UNK A   3      28.540   3.720  -8.316  0.00  0.00    +0.000 F 
ATOM     43  C   UNK A   3      28.275   1.814  -6.946  0.00  0.00    +0.000 A 
ATOM     44  F   UNK A   3      28.762   1.021  -7.911  0.00  0.00    +0.000 F 
ATOM     45  C   UNK A   3      27.876   1.261  -5.738  0.00  0.00    +0.000 A 
ATOM     46  F   UNK A   3      27.984  -0.061  -5.546  0.00  0.00    +0.000 F 
ATOM     47  C   UNK A   3      27.365   2.073  -4.730  0.00  0.00    +0.000 A 
ATOM     48  F   UNK A   3      26.965   1.508  -3.581  0.00  0.00    +0.000 F 
ENDBRANCH  11  38
BRANCH   5  49
ATOM     49  C   UNK A   3      20.955   6.272  -2.838  0.00  0.00    +0.000 A 
ATOM     50  C   UNK A   3      20.069   5.314  -2.335  0.00  0.00    +0.000 A 
ATOM     51  F   UNK A   3      20.497   4.391  -1.460  0.00  0.00    +0.000 F 
ATOM     52  C   UNK A   3      18.737   5.297  -2.739  0.00  0.00    +0.000 A 
ATOM     53  F   UNK A   3      17.909   4.355  -2.266  0.00  0.00    +0.000 F 
ATOM     54  C   UNK A   3      18.269   6.244  -3.639  0.00  0.00    +0.000 A 
ATOM     55  F   UNK A   3      16.987   6.224  -4.028  0.00  0.00    +0.000 F 
ATOM     56  C   UNK A   3      19.137   7.202  -4.147  0.00  0.00    +0.000 A 
ATOM     57  F   UNK A   3      18.693   8.111  -5.024  0.00  0.00    +0.000 F 
ATOM     58  C   UNK A   3      20.471   7.214  -3.752  0.00  0.00    +0.000 A 
ATOM     59  F   UNK A   3      21.300   8.138  -4.260  0.00  0.00    +0.000 F 
ENDBRANCH   5  49
BRANCH   1  63
ATOM     60  C   UNK A   3      23.301  11.063   4.567  0.00  0.00    +0.000 A 
ATOM     61  C   UNK A   3      23.713  11.632   3.354  0.00  0.00    +0.000 A 
ATOM     62  C   UNK A   3      24.148  10.820   2.295  0.00  0.00    +0.000 A 
ATOM     63  C   UNK A   3      24.199   9.427   2.437  0.00  0.00    +0.000 A 
ATOM     64  C   UNK A   3      23.810   8.853   3.655  0.00  0.00    +0.000 A 
ATOM     65  C   UNK A   3      23.357   9.667   4.704  0.00  0.00    +0.000 A 
BRANCH  60  67
ATOM     66  N   UNK A   3      23.027  13.278   5.579  0.00  0.00    +0.000 N 
ATOM     67  C   UNK A   3      22.843  11.909   5.726  0.00  0.00    +0.000 C 
ATOM     68  O   UNK A   3      22.337  11.396   6.721  0.00  0.00    +0.000 OA
ATOM     69  H   UNK A   3      23.303  13.649   4.676  0.00  0.00    +0.000 HD
BRANCH  66  70
ATOM     70  C   UNK A   3      22.620  14.207   6.626  0.00  0.00    +0.000 C 
BRANCH  70  71
ATOM     71  C   UNK A   3      22.010  15.492   6.063  0.00  0.00    +0.000 C 
BRANCH  71  72
ATOM     72  C   UNK A   3      21.806  16.542   7.162  0.00  0.00    +0.000 C 
BRANCH  72  73
ATOM     73  C   UNK A   3      21.920  15.938   8.567  0.00  0.00    +0.000 C 
BRANCH  73  74
ATOM     74  C   UNK A   3      23.027  16.615   9.382  0.00  0.00    +0.000 C 
BRANCH  74  75
ATOM     75  C   UNK A   3      23.393  15.824  10.635  0.00  0.00    +0.000 C 
BRANCH  75  78
ATOM     76  C   UNK A   3      23.353  16.162  13.107  0.00  0.00    +0.000 C 
ATOM     77  O   UNK A   3      23.352  14.972  13.422  0.00  0.00    +0.000 OA
ATOM     78  N   UNK A   3      23.330  16.671  11.820  0.00  0.00    +0.000 N 
ATOM     79  H   UNK A   3      23.376  17.673  11.662  0.00  0.00    +0.000 HD
BRANCH  76  80
ATOM     80  C   UNK A   3      23.453  17.154  14.267  0.00  0.00    +0.000 C 
BRANCH  80  83
ATOM     81  C   CYS A   2      24.950  19.131  13.739  0.00  0.00    +0.000 C 
ATOM     82  O   CYS A   2      25.959  18.675  14.269  0.00  0.00    +0.000 OA
ATOM     83  N   UNK A   3      23.724  18.491  13.675  0.00  0.00    +0.000 N 
ATOM     84  H   UNK A   3      22.963  18.915  13.142  0.00  0.00    +0.000 HD
BRANCH  81  85
ATOM     85  CA  CYS A   2      25.023  20.494  13.066  0.00  0.00    +0.000 C 
BRANCH  85  88
ATOM     86  C   TRP A   1      26.534  19.562  11.292  0.00  0.00    +0.000 C 
ATOM     87  O   TRP A   1      25.718  18.725  10.899  0.00  0.00    +0.000 OA
ATOM     88  N   CYS A   2      26.249  20.496  12.272  0.00  0.00    +0.000 N 
ATOM     89  H   CYS A   2      26.997  21.173  12.465  0.00  0.00    +0.000 HD
BRANCH  86  90
ATOM     90  CA  TRP A   1      27.961  19.707  10.663  0.00  0.00    +0.000 C 
BRANCH  90  91
ATOM     91  N   TRP A   1      28.946  19.904  11.760  0.00  0.00    +0.000 NA
ATOM     92  H1  TRP A   1      28.429  20.253  12.573  0.00  0.00    +0.000 HD
ATOM     93  H2  TRP A   1      29.565  20.673  11.505  0.00  0.00    +0.000 HD
ENDBRANCH  90  91
BRANCH  90  94
ATOM     94  CB  TRP A   1      28.214  18.483   9.751  0.00  0.00    +0.000 C 
BRANCH  94  95
ATOM     95  CG  TRP A   1      27.818  18.591   8.298  0.00  0.00    +0.000 A 
ATOM     96  CD1 TRP A   1      27.979  19.679   7.457  0.00  0.00    +0.000 A 
ATOM     97  NE1 TRP A   1      27.446  19.368   6.227  0.00  0.00    +0.000 N 
ATOM     98  CE2 TRP A   1      26.855  18.124   6.265  0.00  0.00    +0.000 A 
ATOM     99  CZ2 TRP A   1      26.158  17.409   5.277  0.00  0.00    +0.000 A 
ATOM    100  CH2 TRP A   1      25.625  16.164   5.636  0.00  0.00    +0.000 A 
ATOM    101  CZ3 TRP A   1      25.782  15.660   6.925  0.00  0.00    +0.000 A 
ATOM    102  CE3 TRP A   1      26.501  16.374   7.890  0.00  0.00    +0.000 A 
ATOM    103  CD2 TRP A   1      27.057  17.626   7.557  0.00  0.00    +0.000 A 
ATOM    104  HE1 TRP A   1      27.447  19.989   5.429  0.00  0.00    +0.000 HD
ENDBRANCH  94  95
ENDBRANCH  90  94
ENDBRANCH  86  90
ENDBRANCH  85  88
BRANCH  85 105
ATOM    105  CB  CYS A   2      23.759  20.822  12.262  0.00  0.00    +0.000 C 
BRANCH 105 106
ATOM    106  SG  CYS A   2      23.147  22.545  12.397  0.00  0.00    +0.000 S 
ATOM    107  HG  CYS A   2      23.611  22.785  13.633  0.00  0.00    +0.000 HD
ENDBRANCH 105 106
ENDBRANCH  85 105
ENDBRANCH  81  85
ENDBRANCH  80  83
BRANCH  80 108
ATOM    108  C   UNK A   3      22.165  17.163  15.089  0.00  0.00    +0.000 C 
BRANCH 108 109
ATOM    109  O   UNK A   3      22.068  16.133  16.075  0.00  0.00    +0.000 OA
ATOM    110  H   UNK A   3      21.665  15.318  15.737  0.00  0.00    +0.000 HD
ENDBRANCH 108 109
ENDBRANCH  80 108
ENDBRANCH  76  80
ENDBRANCH  75  78
ENDBRANCH  74  75
ENDBRANCH  73  74
ENDBRANCH  72  73
ENDBRANCH  71  72
ENDBRANCH  70  71
ENDBRANCH  66  70
ENDBRANCH  60  67
ENDBRANCH   1  63
TORSDOF 24
ENDMDL
MODEL 8
REMARK VINA RESULT:     -10.3     44.527     52.859
REMARK  Name = 
REMARK  24 active torsions:
REMARK  status: ('A' for Active; 'I' for Inactive)
REMARK    1  A    between atoms: N_1  and  CA_2
REMARK    2  A    between atoms: CA_2  and  CB_3
REMARK    3  A    between atoms: CA_2  and  C_13
REMARK    4  A    between atoms: CB_3  and  CG_4
REMARK    5  A    between atoms: N_15  and  CA_16
REMARK    6  A    between atoms: CA_16  and  CB_17
REMARK    7  A    between atoms: CA_16  and  C_19
REMARK    8  A    between atoms: CB_17  and  SG_18
REMARK    9  A    between atoms: N_21  and  C_22
REMARK   10  A    between atoms: C_22  and  C_23
REMARK   11  A    between atoms: C_22  and  C_25
REMARK   12  A    between atoms: C_23  and  O_24
REMARK   13  A    between atoms: N_27  and  C_28
REMARK   14  A    between atoms: C_28  and  C_29
REMARK   15  A    between atoms: C_29  and  C_30
REMARK   16  A    between atoms: C_30  and  C_31
REMARK   17  A    between atoms: C_31  and  C_32
REMARK   18  A    between atoms: C_32  and  C_33
REMARK   19  A    between atoms: C_33  and  N_34
REMARK   20  A    between atoms: C_35  and  C_37
REMARK   21  A    between atoms: C_40  and  C_41
REMARK   22  A    between atoms: C_45  and  C_46
REMARK   23  A    between atoms: C_62  and  C_63
REMARK   24  A    between atoms: C_77  and  C_78
REMARK                            x       y       z     vdW  Elec       q    Type
REMARK                         _______ _______ _______ _____ _____    ______ ____
ROOT
ATOM      1  C   UNK A   3      24.771  21.938  -4.135  0.00  0.00    +0.000 C 
ATOM      2  C   UNK A   3      25.787  21.945  -5.247  0.00  0.00    +0.000 C 
ATOM      3  N   UNK A   3      26.052  22.920  -6.068  0.00  0.00    +0.000 NA
ATOM      4  C   UNK A   3      27.045  22.486  -6.905  0.00  0.00    +0.000 C 
ATOM      5  C   UNK A   3      27.606  23.172  -7.925  0.00  0.00    +0.000 C 
ATOM      6  C   UNK A   3      27.277  24.523  -8.322  0.00  0.00    +0.000 A 
ATOM      7  C   UNK A   3      27.803  25.235  -9.392  0.00  0.00    +0.000 A 
ATOM      8  C   UNK A   3      27.260  26.526  -9.383  0.00  0.00    +0.000 A 
ATOM      9  C   UNK A   3      26.350  26.608  -8.345  0.00  0.00    +0.000 A 
ATOM     10  N   UNK A   3      26.372  25.377  -7.703  0.00  0.00    +0.000 N 
ATOM     11  C   UNK A   3      25.518  27.719  -7.958  0.00  0.00    +0.000 C 
ATOM     12  C   UNK A   3      24.639  27.713  -6.928  0.00  0.00    +0.000 C 
ATOM     13  N   UNK A   3      24.337  26.668  -6.061  0.00  0.00    +0.000 NA
ATOM     14  C   UNK A   3      23.423  27.132  -5.243  0.00  0.00    +0.000 C 
ATOM     15  C   UNK A   3      22.721  26.407  -4.113  0.00  0.00    +0.000 C 
ATOM     16  C   UNK A   3      23.010  25.114  -3.846  0.00  0.00    +0.000 A 
ATOM     17  C   UNK A   3      22.409  24.293  -2.801  0.00  0.00    +0.000 A 
ATOM     18  C   UNK A   3      22.990  23.079  -2.802  0.00  0.00    +0.000 A 
ATOM     19  C   UNK A   3      23.997  23.019  -3.871  0.00  0.00    +0.000 A 
ATOM     20  N   UNK A   3      23.915  24.268  -4.449  0.00  0.00    +0.000 N 
ATOM     21  C   UNK A   3      23.051  28.531  -5.493  0.00  0.00    +0.000 C 
ATOM     22  C   UNK A   3      23.810  28.835  -6.539  0.00  0.00    +0.000 C 
ATOM     23  C   UNK A   3      27.369  21.134  -6.490  0.00  0.00    +0.000 C 
ATOM     24  C   UNK A   3      26.601  20.744  -5.474  0.00  0.00    +0.000 C 
ATOM     25  H   UNK A   3      25.788  25.172  -6.907  0.00  0.00    +0.000 HD
ATOM     26  H   UNK A   3      24.477  24.610  -5.219  0.00  0.00    +0.000 HD
ENDROOT
BRANCH  15  27
ATOM     27  C   UNK A   3      21.708  27.123  -3.296  0.00  0.00    +0.000 A 
ATOM     28  C   UNK A   3      20.416  27.373  -3.787  0.00  0.00    +0.000 A 
ATOM     29  F   UNK A   3      20.072  26.976  -5.022  0.00  0.00    +0.000 F 
ATOM     30  C   UNK A   3      19.457  28.012  -2.998  0.00  0.00    +0.000 A 
ATOM     31  F   UNK A   3      18.228  28.243  -3.487  0.00  0.00    +0.000 F 
ATOM     32  C   UNK A   3      19.766  28.399  -1.702  0.00  0.00    +0.000 A 
ATOM     33  F   UNK A   3      18.836  28.984  -0.935  0.00  0.00    +0.000 F 
ATOM     34  C   UNK A   3      21.038  28.164  -1.197  0.00  0.00    +0.000 A 
ATOM     35  F   UNK A   3      21.332  28.513   0.064  0.00  0.00    +0.000 F 
ATOM     36  C   UNK A   3      22.004  27.541  -1.991  0.00  0.00    +0.000 A 
ATOM     37  F   UNK A   3      23.221  27.316  -1.473  0.00  0.00    +0.000 F 
ENDBRANCH  15  27
BRANCH  11  38
ATOM     38  C   UNK A   3      25.598  28.974  -8.766  0.00  0.00    +0.000 A 
ATOM     39  C   UNK A   3      26.118  30.157  -8.226  0.00  0.00    +0.000 A 
ATOM     40  F   UNK A   3      26.539  30.191  -6.953  0.00  0.00    +0.000 F 
ATOM     41  C   UNK A   3      26.202  31.315  -8.995  0.00  0.00    +0.000 A 
ATOM     42  F   UNK A   3      26.686  32.439  -8.453  0.00  0.00    +0.000 F 
ATOM     43  C   UNK A   3      25.785  31.304 -10.317  0.00  0.00    +0.000 A 
ATOM     44  F   UNK A   3      25.872  32.412 -11.067  0.00  0.00    +0.000 F 
ATOM     45  C   UNK A   3      25.272  30.139 -10.869  0.00  0.00    +0.000 A 
ATOM     46  F   UNK A   3      24.873  30.132 -12.148  0.00  0.00    +0.000 F 
ATOM     47  C   UNK A   3      25.173  28.983 -10.101  0.00  0.00    +0.000 A 
ATOM     48  F   UNK A   3      24.652  27.878 -10.654  0.00  0.00    +0.000 F 
ENDBRANCH  11  38
BRANCH   5  49
ATOM     49  C   UNK A   3      28.659  22.449  -8.695  0.00  0.00    +0.000 A 
ATOM     50  C   UNK A   3      30.007  22.540  -8.336  0.00  0.00    +0.000 A 
ATOM     51  F   UNK A   3      30.381  23.316  -7.308  0.00  0.00    +0.000 F 
ATOM     52  C   UNK A   3      30.980  21.836  -9.042  0.00  0.00    +0.000 A 
ATOM     53  F   UNK A   3      32.270  21.957  -8.699  0.00  0.00    +0.000 F 
ATOM     54  C   UNK A   3      30.618  21.023 -10.106  0.00  0.00    +0.000 A 
ATOM     55  F   UNK A   3      31.556  20.350 -10.786  0.00  0.00    +0.000 F 
ATOM     56  C   UNK A   3      29.283  20.922 -10.475  0.00  0.00    +0.000 A 
ATOM     57  F   UNK A   3      28.929  20.148 -11.509  0.00  0.00    +0.000 F 
ATOM     58  C   UNK A   3      28.311  21.632  -9.777  0.00  0.00    +0.000 A 
ATOM     59  F   UNK A   3      27.027  21.534 -10.153  0.00  0.00    +0.000 F 
ENDBRANCH   5  49
BRANCH   1  63
ATOM     60  C   UNK A   3      24.370  18.410  -1.675  0.00  0.00    +0.000 A 
ATOM     61  C   UNK A   3      25.511  19.219  -1.579  0.00  0.00    +0.000 A 
ATOM     62  C   UNK A   3      25.641  20.369  -2.374  0.00  0.00    +0.000 A 
ATOM     63  C   UNK A   3      24.644  20.719  -3.293  0.00  0.00    +0.000 A 
ATOM     64  C   UNK A   3      23.511  19.902  -3.411  0.00  0.00    +0.000 A 
ATOM     65  C   UNK A   3      23.376  18.765  -2.601  0.00  0.00    +0.000 A 
BRANCH  60  67
ATOM     66  N   UNK A   3      24.645  17.257   0.469  0.00  0.00    +0.000 N 
ATOM     67  C   UNK A   3      24.209  17.163  -0.847  0.00  0.00    +0.000 C 
ATOM     68  O   UNK A   3      23.714  16.146  -1.326  0.00  0.00    +0.000 OA
ATOM     69  H   UNK A   3      24.897  18.164   0.847  0.00  0.00    +0.000 HD
BRANCH  66  70
ATOM     70  C   UNK A   3      24.539  16.122   1.378  0.00  0.00    +0.000 C 
BRANCH  70  71
ATOM     71  C   UNK A   3      24.109  16.539   2.786  0.00  0.00    +0.000 C 
BRANCH  71  72
ATOM     72  C   UNK A   3      24.230  18.055   2.982  0.00  0.00    +0.000 C 
BRANCH  72  73
ATOM     73  C   UNK A   3      25.353  18.424   3.960  0.00  0.00    +0.000 C 
BRANCH  73  74
ATOM     74  C   UNK A   3      26.638  18.810   3.221  0.00  0.00    +0.000 C 
BRANCH  74  75
ATOM     75  C   UNK A   3      27.812  17.904   3.585  0.00  0.00    +0.000 C 
BRANCH  75  78
ATOM     76  C   UNK A   3      28.559  18.458   5.899  0.00  0.00    +0.000 C 
ATOM     77  O   UNK A   3      29.287  19.405   5.602  0.00  0.00    +0.000 OA
ATOM     78  N   UNK A   3      27.852  17.657   5.020  0.00  0.00    +0.000 N 
ATOM     79  H   UNK A   3      27.242  16.923   5.369  0.00  0.00    +0.000 HD
BRANCH  76  80
ATOM     80  C   UNK A   3      28.388  18.202   7.397  0.00  0.00    +0.000 C 
BRANCH  80  83
ATOM     81  C   CYS A   2      26.586  16.424   7.547  0.00  0.00    +0.000 C 
ATOM     82  O   CYS A   2      27.328  15.469   7.341  0.00  0.00    +0.000 OA
ATOM     83  N   UNK A   3      26.986  17.748   7.604  0.00  0.00    +0.000 N 
ATOM     84  H   UNK A   3      26.310  18.468   7.862  0.00  0.00    +0.000 HD
BRANCH  81  85
ATOM     85  CA  CYS A   2      25.106  16.167   7.792  0.00  0.00    +0.000 C 
BRANCH  85  88
ATOM     86  C   TRP A   1      23.805  17.111   9.720  0.00  0.00    +0.000 C 
ATOM     87  O   TRP A   1      23.516  16.008  10.191  0.00  0.00    +0.000 OA
ATOM     88  N   CYS A   2      24.627  17.272   8.619  0.00  0.00    +0.000 N 
ATOM     89  H   CYS A   2      24.835  18.245   8.365  0.00  0.00    +0.000 HD
BRANCH  86  90
ATOM     90  CA  TRP A   1      23.334  18.455  10.370  0.00  0.00    +0.000 C 
BRANCH  90  91
ATOM     91  N   TRP A   1      21.849  18.514  10.317  0.00  0.00    +0.000 NA
ATOM     92  H1  TRP A   1      21.582  19.499  10.407  0.00  0.00    +0.000 HD
ATOM     93  H2  TRP A   1      21.477  18.074  11.158  0.00  0.00    +0.000 HD
ENDBRANCH  90  91
BRANCH  90  94
ATOM     94  CB  TRP A   1      23.955  18.552  11.785  0.00  0.00    +0.000 C 
BRANCH  94  95
ATOM     95  CG  TRP A   1      24.812  19.753  12.100  0.00  0.00    +0.000 A 
ATOM     96  CD1 TRP A   1      26.174  19.778  12.350  0.00  0.00    +0.000 A 
ATOM     97  NE1 TRP A   1      26.548  21.073  12.629  0.00  0.00    +0.000 N 
ATOM     98  CE2 TRP A   1      25.440  21.893  12.656  0.00  0.00    +0.000 A 
ATOM     99  CZ2 TRP A   1      25.321  23.264  12.932  0.00  0.00    +0.000 A 
ATOM    100  CH2 TRP A   1      24.033  23.815  12.926  0.00  0.00    +0.000 A 
ATOM    101  CZ3 TRP A   1      22.917  23.028  12.655  0.00  0.00    +0.000 A 
ATOM    102  CE3 TRP A   1      23.055  21.668  12.356  0.00  0.00    +0.000 A 
ATOM    103  CD2 TRP A   1      24.339  21.086  12.347  0.00  0.00    +0.000 A 
ATOM    104  HE1 TRP A   1      27.494  21.364  12.834  0.00  0.00    +0.000 HD
ENDBRANCH  94  95
ENDBRANCH  90  94
ENDBRANCH  86  90
ENDBRANCH  85  88
BRANCH  85 105
ATOM    105  CB  CYS A   2      24.318  15.977   6.489  0.00  0.00    +0.000 C 
BRANCH 105 106
ATOM    106  SG  CYS A   2      23.696  14.283   6.168  0.00  0.00    +0.000 S 
ATOM    107  HG  CYS A   2      24.085  14.207   4.886  0.00  0.00    +0.000 HD
ENDBRANCH 105 106
ENDBRANCH  85 105
ENDBRANCH  81  85
ENDBRANCH  80  83
BRANCH  80 108
ATOM    108  C   UNK A   3      29.387  17.156   7.890  0.00  0.00    +0.000 C 
BRANCH 108 109
ATOM    109  O   UNK A   3      30.076  16.444   6.859  0.00  0.00    +0.000 OA
ATOM    110  H   UNK A   3      29.516  16.245   6.093  0.00  0.00    +0.000 HD
ENDBRANCH 108 109
ENDBRANCH  80 108
ENDBRANCH  76  80
ENDBRANCH  75  78
ENDBRANCH  74  75
ENDBRANCH  73  74
ENDBRANCH  72  73
ENDBRANCH  71  72
ENDBRANCH  70  71
ENDBRANCH  66  70
ENDBRANCH  60  67
ENDBRANCH   1  63
TORSDOF 24
ENDMDL
MODEL 9
REMARK VINA RESULT:     -10.2     33.152     39.310
REMARK  Name = 
REMARK  24 active torsions:
REMARK  status: ('A' for Active; 'I' for Inactive)
REMARK    1  A    between atoms: N_1  and  CA_2
REMARK    2  A    between atoms: CA_2  and  CB_3
REMARK    3  A    between atoms: CA_2  and  C_13
REMARK    4  A    between atoms: CB_3  and  CG_4
REMARK    5  A    between atoms: N_15  and  CA_16
REMARK    6  A    between atoms: CA_16  and  CB_17
REMARK    7  A    between atoms: CA_16  and  C_19
REMARK    8  A    between atoms: CB_17  and  SG_18
REMARK    9  A    between atoms: N_21  and  C_22
REMARK   10  A    between atoms: C_22  and  C_23
REMARK   11  A    between atoms: C_22  and  C_25
REMARK   12  A    between atoms: C_23  and  O_24
REMARK   13  A    between atoms: N_27  and  C_28
REMARK   14  A    between atoms: C_28  and  C_29
REMARK   15  A    between atoms: C_29  and  C_30
REMARK   16  A    between atoms: C_30  and  C_31
REMARK   17  A    between atoms: C_31  and  C_32
REMARK   18  A    between atoms: C_32  and  C_33
REMARK   19  A    between atoms: C_33  and  N_34
REMARK   20  A    between atoms: C_35  and  C_37
REMARK   21  A    between atoms: C_40  and  C_41
REMARK   22  A    between atoms: C_45  and  C_46
REMARK   23  A    between atoms: C_62  and  C_63
REMARK   24  A    between atoms: C_77  and  C_78
REMARK                            x       y       z     vdW  Elec       q    Type
REMARK                         _______ _______ _______ _____ _____    ______ ____
ROOT
ATOM      1  C   UNK A   3      46.287  11.037  47.555  0.00  0.00    +0.000 C 
ATOM      2  C   UNK A   3      46.179   9.937  48.579  0.00  0.00    +0.000 C 
ATOM      3  N   UNK A   3      46.897   9.787  49.654  0.00  0.00    +0.000 NA
ATOM      4  C   UNK A   3      46.448   8.658  50.287  0.00  0.00    +0.000 C 
ATOM      5  C   UNK A   3      46.930   8.120  51.428  0.00  0.00    +0.000 C 
ATOM      6  C   UNK A   3      48.013   8.650  52.226  0.00  0.00    +0.000 A 
ATOM      7  C   UNK A   3      48.558   8.094  53.376  0.00  0.00    +0.000 A 
ATOM      8  C   UNK A   3      49.545   8.959  53.868  0.00  0.00    +0.000 A 
ATOM      9  C   UNK A   3      49.661  10.027  52.998  0.00  0.00    +0.000 A 
ATOM     10  N   UNK A   3      48.718   9.826  51.999  0.00  0.00    +0.000 N 
ATOM     11  C   UNK A   3      50.562  11.150  53.061  0.00  0.00    +0.000 C 
ATOM     12  C   UNK A   3      50.619  12.154  52.154  0.00  0.00    +0.000 C 
ATOM     13  N   UNK A   3      49.868  12.310  50.994  0.00  0.00    +0.000 NA
ATOM     14  C   UNK A   3      50.287  13.423  50.441  0.00  0.00    +0.000 C 
ATOM     15  C   UNK A   3      49.827  14.057  49.144  0.00  0.00    +0.000 C 
ATOM     16  C   UNK A   3      48.868  13.467  48.397  0.00  0.00    +0.000 A 
ATOM     17  C   UNK A   3      48.337  13.956  47.130  0.00  0.00    +0.000 A 
ATOM     18  C   UNK A   3      47.356  13.135  46.713  0.00  0.00    +0.000 A 
ATOM     19  C   UNK A   3      47.199  12.033  47.674  0.00  0.00    +0.000 A 
ATOM     20  N   UNK A   3      48.158  12.308  48.624  0.00  0.00    +0.000 N 
ATOM     21  C   UNK A   3      51.345  14.107  51.198  0.00  0.00    +0.000 C 
ATOM     22  C   UNK A   3      51.521  13.286  52.227  0.00  0.00    +0.000 C 
ATOM     23  C   UNK A   3      45.358   8.143  49.480  0.00  0.00    +0.000 C 
ATOM     24  C   UNK A   3      45.163   8.894  48.396  0.00  0.00    +0.000 C 
ATOM     25  H   UNK A   3      48.601  10.468  51.229  0.00  0.00    +0.000 HD
ATOM     26  H   UNK A   3      48.343  11.770  49.463  0.00  0.00    +0.000 HD
ENDROOT
BRANCH  15  27
ATOM     27  C   UNK A   3      50.435  15.336  48.693  0.00  0.00    +0.000 A 
ATOM     28  C   UNK A   3      49.878  16.575  49.047  0.00  0.00    +0.000 A 
ATOM     29  F   UNK A   3      48.766  16.629  49.797  0.00  0.00    +0.000 F 
ATOM     30  C   UNK A   3      50.477  17.773  48.652  0.00  0.00    +0.000 A 
ATOM     31  F   UNK A   3      49.928  18.947  49.000  0.00  0.00    +0.000 F 
ATOM     32  C   UNK A   3      51.650  17.754  47.911  0.00  0.00    +0.000 A 
ATOM     33  F   UNK A   3      52.242  18.904  47.559  0.00  0.00    +0.000 F 
ATOM     34  C   UNK A   3      52.217  16.540  47.548  0.00  0.00    +0.000 A 
ATOM     35  F   UNK A   3      53.364  16.518  46.854  0.00  0.00    +0.000 F 
ATOM     36  C   UNK A   3      51.609  15.340  47.927  0.00  0.00    +0.000 A 
ATOM     37  F   UNK A   3      52.185  14.182  47.572  0.00  0.00    +0.000 F 
ENDBRANCH  15  27
BRANCH  11  38
ATOM     38  C   UNK A   3      51.535  11.210  54.194  0.00  0.00    +0.000 A 
ATOM     39  C   UNK A   3      52.810  10.638  54.091  0.00  0.00    +0.000 A 
ATOM     40  F   UNK A   3      53.176  10.001  52.969  0.00  0.00    +0.000 F 
ATOM     41  C   UNK A   3      53.713  10.715  55.148  0.00  0.00    +0.000 A 
ATOM     42  F   UNK A   3      54.919  10.145  55.035  0.00  0.00    +0.000 F 
ATOM     43  C   UNK A   3      53.363  11.377  56.315  0.00  0.00    +0.000 A 
ATOM     44  F   UNK A   3      54.231  11.464  57.334  0.00  0.00    +0.000 F 
ATOM     45  C   UNK A   3      52.106  11.954  56.431  0.00  0.00    +0.000 A 
ATOM     46  F   UNK A   3      51.774  12.595  57.560  0.00  0.00    +0.000 F 
ATOM     47  C   UNK A   3      51.196  11.867  55.384  0.00  0.00    +0.000 A 
ATOM     48  F   UNK A   3      49.980  12.414  55.533  0.00  0.00    +0.000 F 
ENDBRANCH  11  38
BRANCH   5  49
ATOM     49  C   UNK A   3      46.266   6.866  51.888  0.00  0.00    +0.000 A 
ATOM     50  C   UNK A   3      46.818   5.612  51.609  0.00  0.00    +0.000 A 
ATOM     51  F   UNK A   3      47.943   5.516  50.884  0.00  0.00    +0.000 F 
ATOM     52  C   UNK A   3      46.207   4.449  52.069  0.00  0.00    +0.000 A 
ATOM     53  F   UNK A   3      46.737   3.255  51.769  0.00  0.00    +0.000 F 
ATOM     54  C   UNK A   3      45.046   4.522  52.824  0.00  0.00    +0.000 A 
ATOM     55  F   UNK A   3      44.459   3.400  53.263  0.00  0.00    +0.000 F 
ATOM     56  C   UNK A   3      44.485   5.760  53.110  0.00  0.00    +0.000 A 
ATOM     57  F   UNK A   3      43.358   5.836  53.829  0.00  0.00    +0.000 F 
ATOM     58  C   UNK A   3      45.088   6.923  52.643  0.00  0.00    +0.000 A 
ATOM     59  F   UNK A   3      44.528   8.111  52.917  0.00  0.00    +0.000 F 
ENDBRANCH   5  49
BRANCH   1  63
ATOM     60  C   UNK A   3      43.579  11.045  44.191  0.00  0.00    +0.000 A 
ATOM     61  C   UNK A   3      43.247  11.721  45.373  0.00  0.00    +0.000 A 
ATOM     62  C   UNK A   3      44.129  11.724  46.466  0.00  0.00    +0.000 A 
ATOM     63  C   UNK A   3      45.346  11.034  46.404  0.00  0.00    +0.000 A 
ATOM     64  C   UNK A   3      45.673  10.338  45.233  0.00  0.00    +0.000 A 
ATOM     65  C   UNK A   3      44.799  10.354  44.136  0.00  0.00    +0.000 A 
BRANCH  60  67
ATOM     66  N   UNK A   3      41.979  12.200  42.737  0.00  0.00    +0.000 N 
ATOM     67  C   UNK A   3      42.648  11.012  43.008  0.00  0.00    +0.000 C 
ATOM     68  O   UNK A   3      42.514   9.991  42.338  0.00  0.00    +0.000 OA
ATOM     69  H   UNK A   3      42.249  13.046  43.227  0.00  0.00    +0.000 HD
BRANCH  66  70
ATOM     70  C   UNK A   3      41.054  12.301  41.615  0.00  0.00    +0.000 C 
BRANCH  70  71
ATOM     71  C   UNK A   3      41.569  13.232  40.516  0.00  0.00    +0.000 C 
BRANCH  71  72
ATOM     72  C   UNK A   3      41.363  14.706  40.888  0.00  0.00    +0.000 C 
BRANCH  72  73
ATOM     73  C   UNK A   3      42.667  15.509  40.811  0.00  0.00    +0.000 C 
BRANCH  73  74
ATOM     74  C   UNK A   3      43.302  15.418  39.420  0.00  0.00    +0.000 C 
BRANCH  74  75
ATOM     75  C   UNK A   3      44.692  16.049  39.373  0.00  0.00    +0.000 C 
BRANCH  75  78
ATOM     76  C   UNK A   3      45.380  17.649  41.158  0.00  0.00    +0.000 C 
ATOM     77  O   UNK A   3      46.010  16.847  41.846  0.00  0.00    +0.000 OA
ATOM     78  N   UNK A   3      44.685  17.366  39.995  0.00  0.00    +0.000 N 
ATOM     79  H   UNK A   3      44.229  18.109  39.475  0.00  0.00    +0.000 HD
BRANCH  76  80
ATOM     80  C   UNK A   3      45.436  19.105  41.623  0.00  0.00    +0.000 C 
BRANCH  80  83
ATOM     81  C   CYS A   2      44.738  19.238  44.057  0.00  0.00    +0.000 C 
ATOM     82  O   CYS A   2      43.539  19.386  43.840  0.00  0.00    +0.000 OA
ATOM     83  N   UNK A   3      45.712  19.086  43.084  0.00  0.00    +0.000 N 
ATOM     84  H   UNK A   3      46.674  18.888  43.362  0.00  0.00    +0.000 HD
BRANCH  81  85
ATOM     85  CA  CYS A   2      45.225  19.184  45.497  0.00  0.00    +0.000 C 
BRANCH  85  88
ATOM     86  C   TRP A   1      44.429  17.593  47.268  0.00  0.00    +0.000 C 
ATOM     87  O   TRP A   1      44.102  18.482  48.058  0.00  0.00    +0.000 OA
ATOM     88  N   CYS A   2      44.901  17.849  45.992  0.00  0.00    +0.000 N 
ATOM     89  H   CYS A   2      45.082  17.019  45.416  0.00  0.00    +0.000 HD
BRANCH  86  90
ATOM     90  CA  TRP A   1      44.269  16.071  47.598  0.00  0.00    +0.000 C 
BRANCH  90  91
ATOM     91  N   TRP A   1      44.295  15.302  46.325  0.00  0.00    +0.000 NA
ATOM     92  H1  TRP A   1      44.831  14.447  46.500  0.00  0.00    +0.000 HD
ATOM     93  H2  TRP A   1      44.856  15.818  45.648  0.00  0.00    +0.000 HD
ENDBRANCH  90  91
BRANCH  90  94
ATOM     94  CB  TRP A   1      45.353  15.685  48.634  0.00  0.00    +0.000 C 
BRANCH  94  95
ATOM     95  CG  TRP A   1      45.145  14.424  49.436  0.00  0.00    +0.000 A 
ATOM     96  CD1 TRP A   1      44.158  13.467  49.267  0.00  0.00    +0.000 A 
ATOM     97  NE1 TRP A   1      44.308  12.501  50.235  0.00  0.00    +0.000 N 
ATOM     98  CE2 TRP A   1      45.325  12.847  51.099  0.00  0.00    +0.000 A 
ATOM     99  CZ2 TRP A   1      45.812  12.203  52.247  0.00  0.00    +0.000 A 
ATOM    100  CH2 TRP A   1      46.843  12.835  52.954  0.00  0.00    +0.000 A 
ATOM    101  CZ3 TRP A   1      47.362  14.056  52.530  0.00  0.00    +0.000 A 
ATOM    102  CE3 TRP A   1      46.882  14.672  51.369  0.00  0.00    +0.000 A 
ATOM    103  CD2 TRP A   1      45.850  14.057  50.631  0.00  0.00    +0.000 A 
ATOM    104  HE1 TRP A   1      43.721  11.682  50.324  0.00  0.00    +0.000 HD
ENDBRANCH  94  95
ENDBRANCH  90  94
ENDBRANCH  86  90
ENDBRANCH  85  88
BRANCH  85 105
ATOM    105  CB  CYS A   2      46.708  19.556  45.632  0.00  0.00    +0.000 C 
BRANCH 105 106
ATOM    106  SG  CYS A   2      47.858  18.164  45.943  0.00  0.00    +0.000 S 
ATOM    107  HG  CYS A   2      47.020  17.423  46.685  0.00  0.00    +0.000 HD
ENDBRANCH 105 106
ENDBRANCH  85 105
ENDBRANCH  81  85
ENDBRANCH  80  83
BRANCH  80 108
ATOM    108  C   UNK A   3      46.515  19.878  40.865  0.00  0.00    +0.000 C 
BRANCH 108 109
ATOM    109  O   UNK A   3      47.357  19.081  40.029  0.00  0.00    +0.000 OA
ATOM    110  H   UNK A   3      47.271  19.296  39.086  0.00  0.00    +0.000 HD
ENDBRANCH 108 109
ENDBRANCH  80 108
ENDBRANCH  76  80
ENDBRANCH  75  78
ENDBRANCH  74  75
ENDBRANCH  73  74
ENDBRANCH  72  73
ENDBRANCH  71  72
ENDBRANCH  70  71
ENDBRANCH  66  70
ENDBRANCH  60  67
ENDBRANCH   1  63
TORSDOF 24
ENDMDL
MODEL 10
REMARK VINA RESULT:     -10.1     41.912     45.970
REMARK  Name = 
REMARK  24 active torsions:
REMARK  status: ('A' for Active; 'I' for Inactive)
REMARK    1  A    between atoms: N_1  and  CA_2
REMARK    2  A    between atoms: CA_2  and  CB_3
REMARK    3  A    between atoms: CA_2  and  C_13
REMARK    4  A    between atoms: CB_3  and  CG_4
REMARK    5  A    between atoms: N_15  and  CA_16
REMARK    6  A    between atoms: CA_16  and  CB_17
REMARK    7  A    between atoms: CA_16  and  C_19
REMARK    8  A    between atoms: CB_17  and  SG_18
REMARK    9  A    between atoms: N_21  and  C_22
REMARK   10  A    between atoms: C_22  and  C_23
REMARK   11  A    between atoms: C_22  and  C_25
REMARK   12  A    between atoms: C_23  and  O_24
REMARK   13  A    between atoms: N_27  and  C_28
REMARK   14  A    between atoms: C_28  and  C_29
REMARK   15  A    between atoms: C_29  and  C_30
REMARK   16  A    between atoms: C_30  and  C_31
REMARK   17  A    between atoms: C_31  and  C_32
REMARK   18  A    between atoms: C_32  and  C_33
REMARK   19  A    between atoms: C_33  and  N_34
REMARK   20  A    between atoms: C_35  and  C_37
REMARK   21  A    between atoms: C_40  and  C_41
REMARK   22  A    between atoms: C_45  and  C_46
REMARK   23  A    between atoms: C_62  and  C_63
REMARK   24  A    between atoms: C_77  and  C_78
REMARK                            x       y       z     vdW  Elec       q    Type
REMARK                         _______ _______ _______ _____ _____    ______ ____
ROOT
ATOM      1  C   UNK A   3      14.066  53.958   4.884  0.00  0.00    +0.000 C 
ATOM      2  C   UNK A   3      15.017  54.473   3.834  0.00  0.00    +0.000 C 
ATOM      3  N   UNK A   3      15.558  53.799   2.861  0.00  0.00    +0.000 NA
ATOM      4  C   UNK A   3      16.345  54.669   2.154  0.00  0.00    +0.000 C 
ATOM      5  C   UNK A   3      17.108  54.384   1.077  0.00  0.00    +0.000 C 
ATOM      6  C   UNK A   3      17.229  53.092   0.440  0.00  0.00    +0.000 A 
ATOM      7  C   UNK A   3      18.039  52.759  -0.638  0.00  0.00    +0.000 A 
ATOM      8  C   UNK A   3      17.805  51.421  -0.979  0.00  0.00    +0.000 A 
ATOM      9  C   UNK A   3      16.894  50.896  -0.082  0.00  0.00    +0.000 A 
ATOM     10  N   UNK A   3      16.548  51.928   0.779  0.00  0.00    +0.000 N 
ATOM     11  C   UNK A   3      16.371  49.554  -0.005  0.00  0.00    +0.000 C 
ATOM     12  C   UNK A   3      15.484  49.116   0.919  0.00  0.00    +0.000 C 
ATOM     13  N   UNK A   3      14.917  49.826   1.972  0.00  0.00    +0.000 NA
ATOM     14  C   UNK A   3      14.133  48.979   2.596  0.00  0.00    +0.000 C 
ATOM     15  C   UNK A   3      13.289  49.218   3.831  0.00  0.00    +0.000 C 
ATOM     16  C   UNK A   3      13.287  50.427   4.434  0.00  0.00    +0.000 A 
ATOM     17  C   UNK A   3      12.534  50.795   5.628  0.00  0.00    +0.000 A 
ATOM     18  C   UNK A   3      12.737  52.098   5.897  0.00  0.00    +0.000 A 
ATOM     19  C   UNK A   3      13.662  52.664   4.904  0.00  0.00    +0.000 A 
ATOM     20  N   UNK A   3      13.949  51.586   4.094  0.00  0.00    +0.000 N 
ATOM     21  C   UNK A   3      14.105  47.637   1.998  0.00  0.00    +0.000 C 
ATOM     22  C   UNK A   3      14.956  47.769   0.987  0.00  0.00    +0.000 C 
ATOM     23  C   UNK A   3      16.208  55.961   2.801  0.00  0.00    +0.000 C 
ATOM     24  C   UNK A   3      15.407  55.887   3.862  0.00  0.00    +0.000 C 
ATOM     25  H   UNK A   3      15.895  51.803   1.538  0.00  0.00    +0.000 HD
ATOM     26  H   UNK A   3      14.549  51.593   3.278  0.00  0.00    +0.000 HD
ENDROOT
BRANCH  15  27
ATOM     27  C   UNK A   3      12.461  48.114   4.382  0.00  0.00    +0.000 A 
ATOM     28  C   UNK A   3      12.933  47.292   5.418  0.00  0.00    +0.000 A 
ATOM     29  F   UNK A   3      14.160  47.483   5.928  0.00  0.00    +0.000 F 
ATOM     30  C   UNK A   3      12.134  46.282   5.957  0.00  0.00    +0.000 A 
ATOM     31  F   UNK A   3      12.605  45.507   6.947  0.00  0.00    +0.000 F 
ATOM     32  C   UNK A   3      10.846  46.084   5.482  0.00  0.00    +0.000 A 
ATOM     33  F   UNK A   3      10.068  45.136   6.021  0.00  0.00    +0.000 F 
ATOM     34  C   UNK A   3      10.359  46.884   4.456  0.00  0.00    +0.000 A 
ATOM     35  F   UNK A   3       9.106  46.712   4.011  0.00  0.00    +0.000 F 
ATOM     36  C   UNK A   3      11.164  47.883   3.903  0.00  0.00    +0.000 A 
ATOM     37  F   UNK A   3      10.664  48.647   2.921  0.00  0.00    +0.000 F 
ENDBRANCH  15  27
BRANCH  11  38
ATOM     38  C   UNK A   3      16.861  48.550  -0.998  0.00  0.00    +0.000 A 
ATOM     39  C   UNK A   3      16.172  48.313  -2.195  0.00  0.00    +0.000 A 
ATOM     40  F   UNK A   3      15.037  48.975  -2.464  0.00  0.00    +0.000 F 
ATOM     41  C   UNK A   3      16.648  47.385  -3.119  0.00  0.00    +0.000 A 
ATOM     42  F   UNK A   3      15.965  47.161  -4.247  0.00  0.00    +0.000 F 
ATOM     43  C   UNK A   3      17.824  46.695  -2.869  0.00  0.00    +0.000 A 
ATOM     44  F   UNK A   3      18.294  45.808  -3.758  0.00  0.00    +0.000 F 
ATOM     45  C   UNK A   3      18.521  46.923  -1.691  0.00  0.00    +0.000 A 
ATOM     46  F   UNK A   3      19.660  46.256  -1.455  0.00  0.00    +0.000 F 
ATOM     47  C   UNK A   3      18.043  47.838  -0.759  0.00  0.00    +0.000 A 
ATOM     48  F   UNK A   3      18.725  48.020   0.382  0.00  0.00    +0.000 F 
ENDBRANCH  11  38
BRANCH   5  49
ATOM     49  C   UNK A   3      17.887  55.523   0.511  0.00  0.00    +0.000 A 
ATOM     50  C   UNK A   3      19.138  55.872   1.031  0.00  0.00    +0.000 A 
ATOM     51  F   UNK A   3      19.642  55.206   2.081  0.00  0.00    +0.000 F 
ATOM     52  C   UNK A   3      19.872  56.916   0.476  0.00  0.00    +0.000 A 
ATOM     53  F   UNK A   3      21.056  57.253   1.005  0.00  0.00    +0.000 F 
ATOM     54  C   UNK A   3      19.374  57.617  -0.613  0.00  0.00    +0.000 A 
ATOM     55  F   UNK A   3      20.081  58.624  -1.143  0.00  0.00    +0.000 F 
ATOM     56  C   UNK A   3      18.135  57.282  -1.141  0.00  0.00    +0.000 A 
ATOM     57  F   UNK A   3      17.644  57.963  -2.185  0.00  0.00    +0.000 F 
ATOM     58  C   UNK A   3      17.395  56.245  -0.582  0.00  0.00    +0.000 A 
ATOM     59  F   UNK A   3      16.193  55.942  -1.095  0.00  0.00    +0.000 F 
ENDBRANCH   5  49
BRANCH   1  63
ATOM     60  C   UNK A   3      12.542  56.692   7.858  0.00  0.00    +0.000 A 
ATOM     61  C   UNK A   3      11.865  56.512   6.645  0.00  0.00    +0.000 A 
ATOM     62  C   UNK A   3      12.356  55.619   5.679  0.00  0.00    +0.000 A 
ATOM     63  C   UNK A   3      13.542  54.909   5.899  0.00  0.00    +0.000 A 
ATOM     64  C   UNK A   3      14.236  55.102   7.101  0.00  0.00    +0.000 A 
ATOM     65  C   UNK A   3      13.732  55.979   8.073  0.00  0.00    +0.000 A 
BRANCH  60  67
ATOM     66  N   UNK A   3      11.184  57.115   9.854  0.00  0.00    +0.000 N 
ATOM     67  C   UNK A   3      12.048  57.653   8.908  0.00  0.00    +0.000 C 
ATOM     68  O   UNK A   3      12.406  58.827   8.908  0.00  0.00    +0.000 OA
ATOM     69  H   UNK A   3      11.051  56.110   9.893  0.00  0.00    +0.000 HD
BRANCH  66  70
ATOM     70  C   UNK A   3      10.640  57.938  10.927  0.00  0.00    +0.000 C 
BRANCH  70  71
ATOM     71  C   UNK A   3      10.509  57.170  12.244  0.00  0.00    +0.000 C 
BRANCH  71  72
ATOM     72  C   UNK A   3      11.165  55.787  12.152  0.00  0.00    +0.000 C 
BRANCH  72  73
ATOM     73  C   UNK A   3      11.765  55.342  13.492  0.00  0.00    +0.000 C 
BRANCH  73  74
ATOM     74  C   UNK A   3      12.374  53.939  13.399  0.00  0.00    +0.000 C 
BRANCH  74  75
ATOM     75  C   UNK A   3      13.901  53.967  13.394  0.00  0.00    +0.000 C 
BRANCH  75  78
ATOM     76  C   UNK A   3      14.842  51.731  12.814  0.00  0.00    +0.000 C 
ATOM     77  O   UNK A   3      14.887  51.283  13.959  0.00  0.00    +0.000 OA
ATOM     78  N   UNK A   3      14.434  53.000  12.443  0.00  0.00    +0.000 N 
ATOM     79  H   UNK A   3      14.393  53.262  11.462  0.00  0.00    +0.000 HD
BRANCH  76  80
ATOM     80  C   UNK A   3      15.223  50.749  11.705  0.00  0.00    +0.000 C 
BRANCH  80  83
ATOM     81  C   CYS A   2      14.328  48.475  11.028  0.00  0.00    +0.000 C 
ATOM     82  O   CYS A   2      15.316  48.132  10.386  0.00  0.00    +0.000 OA
ATOM     83  N   UNK A   3      14.188  49.681  11.695  0.00  0.00    +0.000 N 
ATOM     84  H   UNK A   3      13.361  49.845  12.270  0.00  0.00    +0.000 HD
BRANCH  81  85
ATOM     85  CA  CYS A   2      13.155  47.513  11.145  0.00  0.00    +0.000 C 
BRANCH  85  88
ATOM     86  C   TRP A   1      12.604  45.834  12.927  0.00  0.00    +0.000 C 
ATOM     87  O   TRP A   1      12.212  44.975  12.134  0.00  0.00    +0.000 OA
ATOM     88  N   CYS A   2      13.142  47.045  12.528  0.00  0.00    +0.000 N 
ATOM     89  H   CYS A   2      13.483  47.646  13.288  0.00  0.00    +0.000 HD
BRANCH  86  90
ATOM     90  CA  TRP A   1      12.605  45.612  14.477  0.00  0.00    +0.000 C 
BRANCH  90  91
ATOM     91  N   TRP A   1      13.787  46.306  15.056  0.00  0.00    +0.000 NA
ATOM     92  H1  TRP A   1      13.477  46.760  15.921  0.00  0.00    +0.000 HD
ATOM     93  H2  TRP A   1      14.041  47.079  14.442  0.00  0.00    +0.000 HD
ENDBRANCH  90  91
BRANCH  90  94
ATOM     94  CB  TRP A   1      11.231  46.061  15.031  0.00  0.00    +0.000 C 
BRANCH  94  95
ATOM     95  CG  TRP A   1      10.702  45.361  16.259  0.00  0.00    +0.000 A 
ATOM     96  CD1 TRP A   1      11.193  45.435  17.552  0.00  0.00    +0.000 A 
ATOM     97  NE1 TRP A   1      10.441  44.611  18.358  0.00  0.00    +0.000 N 
ATOM     98  CE2 TRP A   1       9.515  43.924  17.604  0.00  0.00    +0.000 A 
ATOM     99  CZ2 TRP A   1       8.568  42.956  17.973  0.00  0.00    +0.000 A 
ATOM    100  CH2 TRP A   1       7.785  42.396  16.955  0.00  0.00    +0.000 A 
ATOM    101  CZ3 TRP A   1       7.944  42.789  15.628  0.00  0.00    +0.000 A 
ATOM    102  CE3 TRP A   1       8.875  43.773  15.280  0.00  0.00    +0.000 A 
ATOM    103  CD2 TRP A   1       9.673  44.361  16.283  0.00  0.00    +0.000 A 
ATOM    104  HE1 TRP A   1      10.586  44.495  19.352  0.00  0.00    +0.000 HD
ENDBRANCH  94  95
ENDBRANCH  90  94
ENDBRANCH  86  90
ENDBRANCH  85  88
BRANCH  85 105
ATOM    105  CB  CYS A   2      11.831  48.140  10.687  0.00  0.00    +0.000 C 
BRANCH 105 106
ATOM    106  SG  CYS A   2      11.710  48.545   8.903  0.00  0.00    +0.000 S 
ATOM    107  HG  CYS A   2      12.849  47.945   8.523  0.00  0.00    +0.000 HD
ENDBRANCH 105 106
ENDBRANCH  85 105
ENDBRANCH  81  85
ENDBRANCH  80  83
BRANCH  80 108
ATOM    108  C   UNK A   3      15.302  51.457  10.353  0.00  0.00    +0.000 C 
BRANCH 108 109
ATOM    109  O   UNK A   3      14.047  51.656   9.699  0.00  0.00    +0.000 OA
ATOM    110  H   UNK A   3      13.390  52.098  10.260  0.00  0.00    +0.000 HD
ENDBRANCH 108 109
ENDBRANCH  80 108
ENDBRANCH  76  80
ENDBRANCH  75  78
ENDBRANCH  74  75
ENDBRANCH  73  74
ENDBRANCH  72  73
ENDBRANCH  71  72
ENDBRANCH  70  71
ENDBRANCH  66  70
ENDBRANCH  60  67
ENDBRANCH   1  63
TORSDOF 24
ENDMDL
