MODEL 1
REMARK VINA RESULT:     -12.0      0.000      0.000
ROOT
ATOM     34  C25 UNL A   1      53.149  19.782  11.563  1.00  0.00    +0.000 C 
ATOM     35  C26 UNL A   1      54.506  19.160  11.373  1.00  0.00    +0.000 C 
ATOM     36  N4  UNL A   1      55.518  19.113  12.204  1.00  0.00    +0.000 N 
ATOM     37  C27 UNL A   1      56.514  18.404  11.546  1.00  0.00    +0.000 C 
ATOM     38  C28 UNL A   1      57.779  18.150  11.954  1.00  0.00    +0.000 C 
ATOM     50  C35 UNL A   1      58.331  18.598  13.204  1.00  0.00    +0.000 C 
ATOM     51  C36 UNL A   1      59.617  18.429  13.685  1.00  0.00    +0.000 C 
ATOM     52  C37 UNL A   1      59.687  19.009  14.954  1.00  0.00    +0.000 C 
ATOM     53  C38 UNL A   1      58.458  19.578  15.244  1.00  0.00    +0.000 C 
ATOM     54  N5  UNL A   1      57.632  19.312  14.164  1.00  0.00    +0.000 N 
ATOM     55  C39 UNL A   1      58.067  20.307  16.421  1.00  0.00    +0.000 C 
ATOM     67  C46 UNL A   1      56.837  20.832  16.639  1.00  0.00    +0.000 C 
ATOM     68  N6  UNL A   1      55.723  20.812  15.812  1.00  0.00    +0.000 N 
ATOM     69  C47 UNL A   1      54.776  21.436  16.467  1.00  0.00    +0.000 C 
ATOM     70  C48 UNL A   1      53.366  21.740  16.035  1.00  0.00    +0.000 C 
ATOM     82  C55 UNL A   1      52.941  21.319  14.827  1.00  0.00    +0.000 C 
ATOM     83  C56 UNL A   1      51.616  21.562  14.261  1.00  0.00    +0.000 C 
ATOM     84  C57 UNL A   1      51.551  21.003  13.041  1.00  0.00    +0.000 C 
ATOM     85  C58 UNL A   1      52.842  20.390  12.726  1.00  0.00    +0.000 C 
ATOM     86  N7  UNL A   1      53.594  20.600  13.855  1.00  0.00    +0.000 N 
ATOM     87  C59 UNL A   1      55.177  21.900  17.803  1.00  0.00    +0.000 C 
ATOM     88  C60 UNL A   1      56.454  21.540  17.843  1.00  0.00    +0.000 C 
ATOM     89  C61 UNL A   1      55.973  17.989  10.272  1.00  0.00    +0.000 C 
ATOM     90  C62 UNL A   1      54.758  18.487  10.088  1.00  0.00    +0.000 C 
ATOM    117  H25 UNL A   1      60.391  17.957  13.193  1.00  0.00    +0.000 H 
ATOM    118  H26 UNL A   1      60.515  19.012  15.572  1.00  0.00    +0.000 H 
ATOM    119  H27 UNL A   1      56.690  19.588  14.091  1.00  0.00    +0.000 H 
ATOM    120  H28 UNL A   1      50.854  22.079  14.724  1.00  0.00    +0.000 H 
ATOM    121  H29 UNL A   1      50.723  21.007  12.425  1.00  0.00    +0.000 H 
ATOM    122  H30 UNL A   1      54.514  20.267  13.958  1.00  0.00    +0.000 H 
ATOM    123  H31 UNL A   1      54.615  22.379  18.523  1.00  0.00    +0.000 H 
ATOM    124  H32 UNL A   1      57.091  21.738  18.629  1.00  0.00    +0.000 H 
ATOM    125  H33 UNL A   1      56.466  17.386   9.595  1.00  0.00    +0.000 H 
ATOM    126  H34 UNL A   1      54.148  18.420   9.259  1.00  0.00    +0.000 H 
ENDROOT
BRANCH   34   33
ATOM     33  C24 UNL A   1      52.145  19.723  10.469  1.00  0.00    +0.000 C 
ATOM    127  H35 UNL A   1      52.533  21.671   9.743  1.00  0.00    +0.000 H 
ATOM    115  H23 UNL A   1      49.833  17.681   9.130  1.00  0.00    +0.000 H 
ATOM    116  H24 UNL A   1      51.491  17.757  10.897  1.00  0.00    +0.000 H 
ATOM     91  C63 UNL A   1      51.933  20.837   9.643  1.00  0.00    +0.000 C 
ATOM     92  C64 UNL A   1      50.918  20.823   8.687  1.00  0.00    +0.000 C 
ATOM     32  C23 UNL A   1      51.356  18.576  10.284  1.00  0.00    +0.000 C 
ATOM     30  C21 UNL A   1      50.177  19.658   8.469  1.00  0.00    +0.000 C 
ATOM     31  C22 UNL A   1      50.390  18.537   9.277  1.00  0.00    +0.000 C 
ATOM    128  H36 UNL A   1      50.714  21.674   8.141  1.00  0.00    +0.000 H 
BRANCH   30    2
ATOM      1  O1  UNL A   1      48.307  20.514   7.343  1.00  0.00    +0.000 O 
ATOM      2  C1  UNL A   1      49.112  19.591   7.441  1.00  0.00    +0.000 C 
BRANCH    2    3
ATOM      3  N1  UNL A   1      49.008  18.509   6.607  1.00  0.00    +0.000 N 
ATOM     93  H1  UNL A   1      48.120  18.085   6.581  1.00  0.00    +0.000 H 
BRANCH    3    4
ATOM      4  C2  UNL A   1      50.010  17.892   5.756  1.00  0.00    +0.000 C 
ATOM     94  H2  UNL A   1      50.932  17.838   6.295  1.00  0.00    +0.000 H 
ATOM     95  H3  UNL A   1      50.102  18.493   4.876  1.00  0.00    +0.000 H 
BRANCH    4    5
ATOM     97  H5  UNL A   1      49.888  16.412   4.285  1.00  0.00    +0.000 H 
ATOM      5  C3  UNL A   1      49.616  16.486   5.317  1.00  0.00    +0.000 C 
ATOM     96  H4  UNL A   1      50.129  15.788   5.947  1.00  0.00    +0.000 H 
BRANCH    5    6
ATOM     98  H6  UNL A   1      47.585  17.075   5.180  1.00  0.00    +0.000 H 
ATOM     99  H7  UNL A   1      47.948  15.777   6.363  1.00  0.00    +0.000 H 
ATOM      6  C4  UNL A   1      48.120  16.172   5.383  1.00  0.00    +0.000 C 
BRANCH    6    7
ATOM    100  H8  UNL A   1      47.221  14.294   4.983  1.00  0.00    +0.000 H 
ATOM    101  H9  UNL A   1      48.471  14.831   3.814  1.00  0.00    +0.000 H 
ATOM      7  C5  UNL A   1      47.623  15.101   4.408  1.00  0.00    +0.000 C 
BRANCH    7    8
ATOM    102  H10 UNL A   1      45.595  15.253   3.803  1.00  0.00    +0.000 H 
ATOM    103  H11 UNL A   1      46.794  15.101   2.482  1.00  0.00    +0.000 H 
ATOM      8  C6  UNL A   1      46.546  15.556   3.419  1.00  0.00    +0.000 C 
BRANCH    8    9
ATOM      9  C7  UNL A   1      46.495  17.058   3.160  1.00  0.00    +0.000 C 
ATOM    105  H13 UNL A   1      46.942  17.551   3.998  1.00  0.00    +0.000 H 
ATOM    104  H12 UNL A   1      47.026  17.270   2.255  1.00  0.00    +0.000 H 
BRANCH    9   10
ATOM     10  N2  UNL A   1      45.136  17.546   3.030  1.00  0.00    +0.000 N 
ATOM    106  H14 UNL A   1      44.473  16.892   2.708  1.00  0.00    +0.000 H 
BRANCH   10   11
ATOM     11  C8  UNL A   1      44.656  18.804   3.297  1.00  0.00    +0.000 C 
ATOM     12  O2  UNL A   1      45.249  19.545   4.078  1.00  0.00    +0.000 O 
BRANCH   11   13
ATOM    107  H15 UNL A   1      42.153  18.129   3.738  1.00  0.00    +0.000 H 
ATOM    108  H16 UNL A   1      40.135  18.947   2.664  1.00  0.00    +0.000 H 
ATOM     13  C9  UNL A   1      43.470  19.306   2.577  1.00  0.00    +0.000 C 
ATOM     14  C10 UNL A   1      42.218  18.828   2.981  1.00  0.00    +0.000 C 
ATOM     15  C11 UNL A   1      41.058  19.296   2.361  1.00  0.00    +0.000 C 
ATOM     16  C12 UNL A   1      41.143  20.239   1.328  1.00  0.00    +0.000 C 
ATOM    113  H21 UNL A   1      42.475  21.369   0.133  1.00  0.00    +0.000 H 
ATOM     27  C19 UNL A   1      42.405  20.686   0.904  1.00  0.00    +0.000 C 
ATOM     28  C20 UNL A   1      43.563  20.213   1.518  1.00  0.00    +0.000 C 
BRANCH   16   17
ATOM    109  H17 UNL A   1      40.916  21.800  -0.956  1.00  0.00    +0.000 H 
ATOM    110  H18 UNL A   1      38.968  22.805  -1.827  1.00  0.00    +0.000 H 
ATOM    112  H20 UNL A   1      38.679  19.910   2.050  1.00  0.00    +0.000 H 
ATOM     17  C13 UNL A   1      39.938  20.779   0.672  1.00  0.00    +0.000 C 
ATOM     18  C14 UNL A   1      40.005  21.628  -0.502  1.00  0.00    +0.000 C 
ATOM     19  C15 UNL A   1      38.899  22.190  -1.001  1.00  0.00    +0.000 C 
ATOM     20  N3  UNL A   1      37.663  21.959  -0.426  1.00  0.00    +0.000 N 
ATOM     24  C17 UNL A   1      37.495  21.132   0.672  1.00  0.00    +0.000 C 
ATOM     25  O3  UNL A   1      36.428  20.879   1.222  1.00  0.00    +0.000 O 
ATOM     26  C18 UNL A   1      38.739  20.529   1.227  1.00  0.00    +0.000 C 
BRANCH   20   21
ATOM     21  C16 UNL A   1      36.485  22.606  -0.944  1.00  0.00    +0.000 C 
ATOM     22  F1  UNL A   1      36.613  23.954  -0.919  1.00  0.00    +0.000 F 
ATOM    111  H19 UNL A   1      35.668  22.310  -0.320  1.00  0.00    +0.000 H 
ATOM     23  F2  UNL A   1      36.252  22.229  -2.225  1.00  0.00    +0.000 F 
ENDBRANCH   20   21
ENDBRANCH   16   17
BRANCH   28   29
ATOM    114  H22 UNL A   1      45.280  20.139   0.481  1.00  0.00    +0.000 H 
ATOM     29  O4  UNL A   1      44.783  20.654   1.085  1.00  0.00    +0.000 O 
ENDBRANCH   28   29
ENDBRANCH   11   13
ENDBRANCH   10   11
ENDBRANCH    9   10
ENDBRANCH    8    9
ENDBRANCH    7    8
ENDBRANCH    6    7
ENDBRANCH    5    6
ENDBRANCH    4    5
ENDBRANCH    3    4
ENDBRANCH    2    3
ENDBRANCH   30    2
ENDBRANCH   34   33
BRANCH   38   39
ATOM     39  C29 UNL A   1      58.676  17.376  11.034  1.00  0.00    +0.000 C 
ATOM     40  C30 UNL A   1      59.511  18.027  10.115  1.00  0.00    +0.000 C 
ATOM     41  F3  UNL A   1      59.450  19.360   9.973  1.00  0.00    +0.000 F 
ATOM     42  C31 UNL A   1      60.404  17.308   9.325  1.00  0.00    +0.000 C 
ATOM     43  F4  UNL A   1      61.174  17.949   8.435  1.00  0.00    +0.000 F 
ATOM     44  C32 UNL A   1      60.498  15.931   9.457  1.00  0.00    +0.000 C 
ATOM     45  F5  UNL A   1      61.374  15.243   8.713  1.00  0.00    +0.000 F 
ATOM     46  C33 UNL A   1      59.684  15.267  10.363  1.00  0.00    +0.000 C 
ATOM     47  F6  UNL A   1      59.784  13.938  10.504  1.00  0.00    +0.000 F 
ATOM     48  C34 UNL A   1      58.771  15.981  11.136  1.00  0.00    +0.000 C 
ATOM     49  F7  UNL A   1      57.998  15.311  12.005  1.00  0.00    +0.000 F 
ENDBRANCH   38   39
BRANCH   55   56
ATOM     65  C45 UNL A   1      59.325  19.504  18.449  1.00  0.00    +0.000 C 
ATOM     66  F12 UNL A   1      58.664  18.339  18.381  1.00  0.00    +0.000 F 
ATOM     56  C40 UNL A   1      59.111  20.498  17.482  1.00  0.00    +0.000 C 
ATOM     57  C41 UNL A   1      59.818  21.701  17.603  1.00  0.00    +0.000 C 
ATOM     58  F8  UNL A   1      59.653  22.675  16.695  1.00  0.00    +0.000 F 
ATOM     59  C42 UNL A   1      60.706  21.904  18.656  1.00  0.00    +0.000 C 
ATOM     60  F9  UNL A   1      61.385  23.055  18.743  1.00  0.00    +0.000 F 
ATOM     61  C43 UNL A   1      60.883  20.919  19.617  1.00  0.00    +0.000 C 
ATOM     62  F10 UNL A   1      61.717  21.127  20.645  1.00  0.00    +0.000 F 
ATOM     63  C44 UNL A   1      60.193  19.721  19.515  1.00  0.00    +0.000 C 
ATOM     64  F11 UNL A   1      60.350  18.775  20.452  1.00  0.00    +0.000 F 
ENDBRANCH   55   56
BRANCH   70   71
ATOM     71  C49 UNL A   1      52.456  22.529  16.906  1.00  0.00    +0.000 C 
ATOM     72  C50 UNL A   1      52.314  23.913  16.731  1.00  0.00    +0.000 C 
ATOM     73  F13 UNL A   1      53.023  24.543  15.784  1.00  0.00    +0.000 F 
ATOM     74  C51 UNL A   1      51.469  24.660  17.550  1.00  0.00    +0.000 C 
ATOM     75  F14 UNL A   1      51.383  25.987  17.386  1.00  0.00    +0.000 F 
ATOM     76  C52 UNL A   1      50.730  24.035  18.542  1.00  0.00    +0.000 C 
ATOM     77  F15 UNL A   1      49.912  24.752  19.324  1.00  0.00    +0.000 F 
ATOM     78  C53 UNL A   1      50.843  22.665  18.725  1.00  0.00    +0.000 C 
ATOM     79  F16 UNL A   1      50.119  22.055  19.673  1.00  0.00    +0.000 F 
ATOM     80  C54 UNL A   1      51.707  21.921  17.925  1.00  0.00    +0.000 C 
ATOM     81  F17 UNL A   1      51.804  20.599  18.132  1.00  0.00    +0.000 F 
ENDBRANCH   70   71
TORSDOF 18
ENDMDL
MODEL 2
REMARK VINA RESULT:     -12.0     40.294     47.402
ROOT
ATOM     34  C25 UNL A   1      25.729  35.101  45.319  1.00  0.00    +0.000 C 
ATOM     35  C26 UNL A   1      25.451  36.236  46.268  1.00  0.00    +0.000 C 
ATOM     36  N4  UNL A   1      26.212  37.252  46.588  1.00  0.00    +0.000 N 
ATOM     37  C27 UNL A   1      25.471  38.014  47.480  1.00  0.00    +0.000 C 
ATOM     38  C28 UNL A   1      25.845  39.125  48.157  1.00  0.00    +0.000 C 
ATOM     50  C35 UNL A   1      27.145  39.731  48.059  1.00  0.00    +0.000 C 
ATOM     51  C36 UNL A   1      27.634  40.832  48.740  1.00  0.00    +0.000 C 
ATOM     52  C37 UNL A   1      28.938  41.073  48.301  1.00  0.00    +0.000 C 
ATOM     53  C38 UNL A   1      29.277  40.095  47.381  1.00  0.00    +0.000 C 
ATOM     54  N5  UNL A   1      28.165  39.283  47.235  1.00  0.00    +0.000 N 
ATOM     55  C39 UNL A   1      30.524  39.919  46.683  1.00  0.00    +0.000 C 
ATOM     67  C46 UNL A   1      30.782  38.938  45.786  1.00  0.00    +0.000 C 
ATOM     68  N6  UNL A   1      29.957  37.907  45.362  1.00  0.00    +0.000 N 
ATOM     69  C47 UNL A   1      30.649  37.229  44.481  1.00  0.00    +0.000 C 
ATOM     70  C48 UNL A   1      30.262  35.988  43.722  1.00  0.00    +0.000 C 
ATOM     82  C55 UNL A   1      29.036  35.458  43.905  1.00  0.00    +0.000 C 
ATOM     83  C56 UNL A   1      28.529  34.247  43.264  1.00  0.00    +0.000 C 
ATOM     84  C57 UNL A   1      27.275  34.017  43.687  1.00  0.00    +0.000 C 
ATOM     85  C58 UNL A   1      26.900  35.050  44.654  1.00  0.00    +0.000 C 
ATOM     86  N7  UNL A   1      27.995  35.878  44.697  1.00  0.00    +0.000 N 
ATOM     87  C59 UNL A   1      31.990  37.774  44.225  1.00  0.00    +0.000 C 
ATOM     88  C60 UNL A   1      32.035  38.793  45.074  1.00  0.00    +0.000 C 
ATOM     89  C61 UNL A   1      24.178  37.381  47.611  1.00  0.00    +0.000 C 
ATOM     90  C62 UNL A   1      24.138  36.242  46.934  1.00  0.00    +0.000 C 
ATOM    117  H25 UNL A   1      27.124  41.381  49.449  1.00  0.00    +0.000 H 
ATOM    118  H26 UNL A   1      29.545  41.848  48.610  1.00  0.00    +0.000 H 
ATOM    119  H27 UNL A   1      28.108  38.503  46.635  1.00  0.00    +0.000 H 
ATOM    120  H28 UNL A   1      29.052  33.662  42.594  1.00  0.00    +0.000 H 
ATOM    121  H29 UNL A   1      26.673  33.239  43.378  1.00  0.00    +0.000 H 
ATOM    122  H30 UNL A   1      28.030  36.695  45.245  1.00  0.00    +0.000 H 
ATOM    123  H31 UNL A   1      32.709  37.451  43.559  1.00  0.00    +0.000 H 
ATOM    124  H32 UNL A   1      32.855  39.403  45.209  1.00  0.00    +0.000 H 
ATOM    125  H33 UNL A   1      23.391  37.763  48.159  1.00  0.00    +0.000 H 
ATOM    126  H34 UNL A   1      23.381  35.543  46.885  1.00  0.00    +0.000 H 
ENDROOT
BRANCH   34   33
ATOM     33  C24 UNL A   1      24.710  34.039  45.111  1.00  0.00    +0.000 C 
ATOM    127  H35 UNL A   1      23.695  35.047  43.554  1.00  0.00    +0.000 H 
ATOM    115  H23 UNL A   1      23.770  31.032  46.285  1.00  0.00    +0.000 H 
ATOM    116  H24 UNL A   1      25.456  32.744  46.608  1.00  0.00    +0.000 H 
ATOM     91  C63 UNL A   1      23.690  34.215  44.164  1.00  0.00    +0.000 C 
ATOM     92  C64 UNL A   1      22.671  33.271  44.043  1.00  0.00    +0.000 C 
ATOM     32  C23 UNL A   1      24.720  32.876  45.897  1.00  0.00    +0.000 C 
ATOM     30  C21 UNL A   1      22.720  32.088  44.786  1.00  0.00    +0.000 C 
ATOM     31  C22 UNL A   1      23.740  31.897  45.722  1.00  0.00    +0.000 C 
ATOM    128  H36 UNL A   1      21.881  33.446  43.404  1.00  0.00    +0.000 H 
BRANCH   30    2
ATOM      1  O1  UNL A   1      21.912  29.902  45.047  1.00  0.00    +0.000 O 
ATOM      2  C1  UNL A   1      21.675  31.045  44.662  1.00  0.00    +0.000 C 
BRANCH    2    3
ATOM      3  N1  UNL A   1      20.453  31.337  44.114  1.00  0.00    +0.000 N 
ATOM     93  H1  UNL A   1      20.302  30.971  43.213  1.00  0.00    +0.000 H 
BRANCH    3    4
ATOM      4  C2  UNL A   1      19.349  32.104  44.660  1.00  0.00    +0.000 C 
ATOM     94  H2  UNL A   1      19.713  32.701  45.469  1.00  0.00    +0.000 H 
ATOM     95  H3  UNL A   1      18.602  31.411  44.987  1.00  0.00    +0.000 H 
BRANCH    4    5
ATOM     97  H5  UNL A   1      17.908  33.523  44.130  1.00  0.00    +0.000 H 
ATOM      5  C3  UNL A   1      18.707  33.021  43.625  1.00  0.00    +0.000 C 
ATOM     96  H4  UNL A   1      19.463  33.683  43.255  1.00  0.00    +0.000 H 
BRANCH    5    6
ATOM     98  H6  UNL A   1      17.936  31.285  42.684  1.00  0.00    +0.000 H 
ATOM     99  H7  UNL A   1      18.740  32.471  41.606  1.00  0.00    +0.000 H 
ATOM      6  C4  UNL A   1      18.071  32.314  42.426  1.00  0.00    +0.000 C 
BRANCH    6    7
ATOM    100  H8  UNL A   1      16.660  32.761  40.908  1.00  0.00    +0.000 H 
ATOM    101  H9  UNL A   1      16.688  33.881  42.309  1.00  0.00    +0.000 H 
ATOM      7  C5  UNL A   1      16.717  32.866  41.971  1.00  0.00    +0.000 C 
BRANCH    7    8
ATOM    102  H10 UNL A   1      14.916  31.761  41.780  1.00  0.00    +0.000 H 
ATOM    103  H11 UNL A   1      14.965  32.948  43.120  1.00  0.00    +0.000 H 
ATOM      8  C6  UNL A   1      15.487  32.187  42.579  1.00  0.00    +0.000 C 
BRANCH    8    9
ATOM      9  C7  UNL A   1      15.787  31.081  43.586  1.00  0.00    +0.000 C 
ATOM    105  H13 UNL A   1      16.837  31.103  43.794  1.00  0.00    +0.000 H 
ATOM    104  H12 UNL A   1      15.212  31.255  44.471  1.00  0.00    +0.000 H 
BRANCH    9   10
ATOM     10  N2  UNL A   1      15.464  29.765  43.069  1.00  0.00    +0.000 N 
ATOM    106  H14 UNL A   1      14.549  29.653  42.720  1.00  0.00    +0.000 H 
BRANCH   10   11
ATOM     11  C8  UNL A   1      16.270  28.656  43.006  1.00  0.00    +0.000 C 
ATOM     12  O2  UNL A   1      17.438  28.711  43.384  1.00  0.00    +0.000 O 
BRANCH   11   13
ATOM    107  H15 UNL A   1      15.986  26.489  44.468  1.00  0.00    +0.000 H 
ATOM    108  H16 UNL A   1      15.012  24.349  43.860  1.00  0.00    +0.000 H 
ATOM     13  C9  UNL A   1      15.709  27.365  42.564  1.00  0.00    +0.000 C 
ATOM     14  C10 UNL A   1      15.631  26.337  43.510  1.00  0.00    +0.000 C 
ATOM     15  C11 UNL A   1      15.074  25.105  43.160  1.00  0.00    +0.000 C 
ATOM     16  C12 UNL A   1      14.598  24.892  41.859  1.00  0.00    +0.000 C 
ATOM    113  H21 UNL A   1      14.379  25.761  39.941  1.00  0.00    +0.000 H 
ATOM     27  C19 UNL A   1      14.713  25.916  40.906  1.00  0.00    +0.000 C 
ATOM     28  C20 UNL A   1      15.276  27.143  41.254  1.00  0.00    +0.000 C 
BRANCH   16   17
ATOM    109  H17 UNL A   1      13.180  23.061  43.388  1.00  0.00    +0.000 H 
ATOM    110  H18 UNL A   1      12.394  20.937  42.732  1.00  0.00    +0.000 H 
ATOM    112  H20 UNL A   1      14.552  23.832  39.498  1.00  0.00    +0.000 H 
ATOM     17  C13 UNL A   1      13.975  23.616  41.462  1.00  0.00    +0.000 C 
ATOM     18  C14 UNL A   1      13.306  22.748  42.413  1.00  0.00    +0.000 C 
ATOM     19  C15 UNL A   1      12.853  21.548  42.038  1.00  0.00    +0.000 C 
ATOM     20  N3  UNL A   1      12.990  21.112  40.734  1.00  0.00    +0.000 N 
ATOM     24  C17 UNL A   1      13.579  21.886  39.747  1.00  0.00    +0.000 C 
ATOM     25  O3  UNL A   1      13.722  21.562  38.573  1.00  0.00    +0.000 O 
ATOM     26  C18 UNL A   1      14.095  23.212  40.185  1.00  0.00    +0.000 C 
BRANCH   20   21
ATOM     21  C16 UNL A   1      12.538  19.798  40.352  1.00  0.00    +0.000 C 
ATOM     22  F1  UNL A   1      13.578  18.942  40.213  1.00  0.00    +0.000 F 
ATOM    111  H19 UNL A   1      12.032  19.904  39.415  1.00  0.00    +0.000 H 
ATOM     23  F2  UNL A   1      11.693  19.289  41.282  1.00  0.00    +0.000 F 
ENDBRANCH   20   21
ENDBRANCH   16   17
BRANCH   28   29
ATOM    114  H22 UNL A   1      14.779  28.838  40.301  1.00  0.00    +0.000 H 
ATOM     29  O4  UNL A   1      15.387  28.126  40.309  1.00  0.00    +0.000 O 
ENDBRANCH   28   29
ENDBRANCH   11   13
ENDBRANCH   10   11
ENDBRANCH    9   10
ENDBRANCH    8    9
ENDBRANCH    7    8
ENDBRANCH    6    7
ENDBRANCH    5    6
ENDBRANCH    4    5
ENDBRANCH    3    4
ENDBRANCH    2    3
ENDBRANCH   30    2
ENDBRANCH   34   33
BRANCH   38   39
ATOM     39  C29 UNL A   1      24.854  39.750  49.092  1.00  0.00    +0.000 C 
ATOM     40  C30 UNL A   1      23.954  40.730  48.650  1.00  0.00    +0.000 C 
ATOM     41  F3  UNL A   1      24.029  41.199  47.395  1.00  0.00    +0.000 F 
ATOM     42  C31 UNL A   1      22.979  41.243  49.501  1.00  0.00    +0.000 C 
ATOM     43  F4  UNL A   1      22.146  42.198  49.064  1.00  0.00    +0.000 F 
ATOM     44  C32 UNL A   1      22.868  40.769  50.799  1.00  0.00    +0.000 C 
ATOM     45  F5  UNL A   1      21.914  41.247  51.610  1.00  0.00    +0.000 F 
ATOM     46  C33 UNL A   1      23.746  39.797  51.257  1.00  0.00    +0.000 C 
ATOM     47  F6  UNL A   1      23.630  39.326  52.506  1.00  0.00    +0.000 F 
ATOM     48  C34 UNL A   1      24.739  39.301  50.416  1.00  0.00    +0.000 C 
ATOM     49  F7  UNL A   1      25.571  38.360  50.886  1.00  0.00    +0.000 F 
ENDBRANCH   38   39
BRANCH   55   56
ATOM     65  C45 UNL A   1      32.625  40.581  47.905  1.00  0.00    +0.000 C 
ATOM     66  F12 UNL A   1      32.674  39.358  48.453  1.00  0.00    +0.000 F 
ATOM     56  C40 UNL A   1      31.616  40.904  46.984  1.00  0.00    +0.000 C 
ATOM     57  C41 UNL A   1      31.601  42.198  46.447  1.00  0.00    +0.000 C 
ATOM     58  F8  UNL A   1      30.662  42.547  45.555  1.00  0.00    +0.000 F 
ATOM     59  C42 UNL A   1      32.560  43.136  46.820  1.00  0.00    +0.000 C 
ATOM     60  F9  UNL A   1      32.538  44.361  46.280  1.00  0.00    +0.000 F 
ATOM     61  C43 UNL A   1      33.533  42.805  47.751  1.00  0.00    +0.000 C 
ATOM     62  F10 UNL A   1      34.438  43.717  48.129  1.00  0.00    +0.000 F 
ATOM     63  C44 UNL A   1      33.565  41.529  48.295  1.00  0.00    +0.000 C 
ATOM     64  F11 UNL A   1      34.494  41.213  49.208  1.00  0.00    +0.000 F 
ENDBRANCH   55   56
BRANCH   70   71
ATOM     71  C49 UNL A   1      31.226  35.322  42.807  1.00  0.00    +0.000 C 
ATOM     72  C50 UNL A   1      32.000  34.236  43.243  1.00  0.00    +0.000 C 
ATOM     73  F13 UNL A   1      31.890  33.803  44.508  1.00  0.00    +0.000 F 
ATOM     74  C51 UNL A   1      32.912  33.614  42.395  1.00  0.00    +0.000 C 
ATOM     75  F14 UNL A   1      33.666  32.604  42.850  1.00  0.00    +0.000 F 
ATOM     76  C52 UNL A   1      33.051  34.046  41.085  1.00  0.00    +0.000 C 
ATOM     77  F15 UNL A   1      33.922  33.442  40.266  1.00  0.00    +0.000 F 
ATOM     78  C53 UNL A   1      32.287  35.109  40.626  1.00  0.00    +0.000 C 
ATOM     79  F16 UNL A   1      32.407  35.520  39.356  1.00  0.00    +0.000 F 
ATOM     80  C54 UNL A   1      31.393  35.749  41.482  1.00  0.00    +0.000 C 
ATOM     81  F17 UNL A   1      30.676  36.782  41.014  1.00  0.00    +0.000 F 
ENDBRANCH   70   71
TORSDOF 18
ENDMDL
MODEL 3
REMARK VINA RESULT:     -11.9     40.447     47.576
ROOT
ATOM     34  C25 UNL A   1      25.735  35.943  45.316  1.00  0.00    +0.000 C 
ATOM     35  C26 UNL A   1      25.585  37.096  46.273  1.00  0.00    +0.000 C 
ATOM     36  N4  UNL A   1      26.458  38.013  46.607  1.00  0.00    +0.000 N 
ATOM     37  C27 UNL A   1      25.804  38.850  47.500  1.00  0.00    +0.000 C 
ATOM     38  C28 UNL A   1      26.301  39.904  48.189  1.00  0.00    +0.000 C 
ATOM     50  C35 UNL A   1      27.664  40.354  48.105  1.00  0.00    +0.000 C 
ATOM     51  C36 UNL A   1      28.273  41.384  48.799  1.00  0.00    +0.000 C 
ATOM     52  C37 UNL A   1      29.600  41.473  48.371  1.00  0.00    +0.000 C 
ATOM     53  C38 UNL A   1      29.830  40.469  47.445  1.00  0.00    +0.000 C 
ATOM     54  N5  UNL A   1      28.631  39.794  47.284  1.00  0.00    +0.000 N 
ATOM     55  C39 UNL A   1      31.053  40.153  46.755  1.00  0.00    +0.000 C 
ATOM     67  C46 UNL A   1      31.201  39.155  45.851  1.00  0.00    +0.000 C 
ATOM     68  N6  UNL A   1      30.263  38.231  45.413  1.00  0.00    +0.000 N 
ATOM     69  C47 UNL A   1      30.878  37.482  44.532  1.00  0.00    +0.000 C 
ATOM     70  C48 UNL A   1      30.353  36.301  43.759  1.00  0.00    +0.000 C 
ATOM     82  C55 UNL A   1      29.072  35.919  43.929  1.00  0.00    +0.000 C 
ATOM     83  C56 UNL A   1      28.432  34.780  43.274  1.00  0.00    +0.000 C 
ATOM     84  C57 UNL A   1      27.156  34.697  43.686  1.00  0.00    +0.000 C 
ATOM     85  C58 UNL A   1      26.897  35.759  44.660  1.00  0.00    +0.000 C 
ATOM     86  N7  UNL A   1      28.081  36.452  44.718  1.00  0.00    +0.000 N 
ATOM     87  C59 UNL A   1      32.276  37.868  44.289  1.00  0.00    +0.000 C 
ATOM     88  C60 UNL A   1      32.433  38.868  45.147  1.00  0.00    +0.000 C 
ATOM     89  C61 UNL A   1      24.445  38.372  47.617  1.00  0.00    +0.000 C 
ATOM     90  C62 UNL A   1      24.276  37.252  46.929  1.00  0.00    +0.000 C 
ATOM    117  H25 UNL A   1      27.826  41.984  49.509  1.00  0.00    +0.000 H 
ATOM    118  H26 UNL A   1      30.293  42.169  48.691  1.00  0.00    +0.000 H 
ATOM    119  H27 UNL A   1      28.487  39.032  46.678  1.00  0.00    +0.000 H 
ATOM    120  H28 UNL A   1      28.887  34.143  42.604  1.00  0.00    +0.000 H 
ATOM    121  H29 UNL A   1      26.469  33.997  43.367  1.00  0.00    +0.000 H 
ATOM    122  H30 UNL A   1      28.208  37.255  45.273  1.00  0.00    +0.000 H 
ATOM    123  H31 UNL A   1      32.957  37.468  43.626  1.00  0.00    +0.000 H 
ATOM    124  H32 UNL A   1      33.319  39.377  45.293  1.00  0.00    +0.000 H 
ATOM    125  H33 UNL A   1      23.704  38.841  48.162  1.00  0.00    +0.000 H 
ATOM    126  H34 UNL A   1      23.443  36.646  46.870  1.00  0.00    +0.000 H 
ENDROOT
BRANCH   34   33
ATOM     33  C24 UNL A   1      24.600  35.010  45.092  1.00  0.00    +0.000 C 
ATOM    127  H35 UNL A   1      23.620  36.234  43.674  1.00  0.00    +0.000 H 
ATOM    115  H23 UNL A   1      23.406  32.032  46.100  1.00  0.00    +0.000 H 
ATOM    116  H24 UNL A   1      25.279  33.533  46.447  1.00  0.00    +0.000 H 
ATOM     91  C63 UNL A   1      23.558  35.362  44.222  1.00  0.00    +0.000 C 
ATOM     92  C64 UNL A   1      22.440  34.539  44.093  1.00  0.00    +0.000 C 
ATOM     32  C23 UNL A   1      24.526  33.795  45.791  1.00  0.00    +0.000 C 
ATOM     30  C21 UNL A   1      22.399  33.303  44.745  1.00  0.00    +0.000 C 
ATOM     31  C22 UNL A   1      23.440  32.937  45.604  1.00  0.00    +0.000 C 
ATOM    128  H36 UNL A   1      21.641  34.844  43.515  1.00  0.00    +0.000 H 
BRANCH   30    2
ATOM      1  O1  UNL A   1      21.440  31.175  44.526  1.00  0.00    +0.000 O 
ATOM      2  C1  UNL A   1      21.245  32.385  44.607  1.00  0.00    +0.000 C 
BRANCH    2    3
ATOM      3  N1  UNL A   1      19.964  32.871  44.558  1.00  0.00    +0.000 N 
ATOM     93  H1  UNL A   1      19.495  32.726  43.705  1.00  0.00    +0.000 H 
BRANCH    3    4
ATOM      4  C2  UNL A   1      19.195  33.566  45.573  1.00  0.00    +0.000 C 
ATOM     94  H2  UNL A   1      19.857  34.186  46.141  1.00  0.00    +0.000 H 
ATOM     95  H3  UNL A   1      18.724  32.827  46.187  1.00  0.00    +0.000 H 
BRANCH    4    5
ATOM     97  H5  UNL A   1      17.315  34.472  45.707  1.00  0.00    +0.000 H 
ATOM      5  C3  UNL A   1      18.097  34.441  44.977  1.00  0.00    +0.000 C 
ATOM     96  H4  UNL A   1      18.521  35.400  44.761  1.00  0.00    +0.000 H 
BRANCH    5    6
ATOM     98  H6  UNL A   1      17.651  32.856  43.642  1.00  0.00    +0.000 H 
ATOM     99  H7  UNL A   1      17.894  34.468  42.894  1.00  0.00    +0.000 H 
ATOM      6  C4  UNL A   1      17.457  33.907  43.694  1.00  0.00    +0.000 C 
BRANCH    6    7
ATOM    100  H8  UNL A   1      15.762  34.686  42.687  1.00  0.00    +0.000 H 
ATOM    101  H9  UNL A   1      15.643  34.601  44.474  1.00  0.00    +0.000 H 
ATOM      7  C5  UNL A   1      15.945  34.113  43.571  1.00  0.00    +0.000 C 
BRANCH    7    8
ATOM    102  H10 UNL A   1      14.900  32.643  42.453  1.00  0.00    +0.000 H 
ATOM    103  H11 UNL A   1      14.230  33.015  44.072  1.00  0.00    +0.000 H 
ATOM      8  C6  UNL A   1      15.107  32.834  43.485  1.00  0.00    +0.000 C 
BRANCH    8    9
ATOM      9  C7  UNL A   1      15.761  31.589  44.075  1.00  0.00    +0.000 C 
ATOM    105  H13 UNL A   1      16.819  31.754  44.100  1.00  0.00    +0.000 H 
ATOM    104  H12 UNL A   1      15.369  31.425  45.057  1.00  0.00    +0.000 H 
BRANCH    9   10
ATOM     10  N2  UNL A   1      15.516  30.408  43.270  1.00  0.00    +0.000 N 
ATOM    106  H14 UNL A   1      14.670  30.399  42.766  1.00  0.00    +0.000 H 
BRANCH   10   11
ATOM     11  C8  UNL A   1      16.312  29.299  43.123  1.00  0.00    +0.000 C 
ATOM     12  O2  UNL A   1      17.517  29.361  43.358  1.00  0.00    +0.000 O 
BRANCH   11   13
ATOM    107  H15 UNL A   1      15.519  28.542  40.734  1.00  0.00    +0.000 H 
ATOM    108  H16 UNL A   1      14.582  26.413  40.035  1.00  0.00    +0.000 H 
ATOM     13  C9  UNL A   1      15.706  28.001  42.768  1.00  0.00    +0.000 C 
ATOM     14  C10 UNL A   1      15.368  27.791  41.427  1.00  0.00    +0.000 C 
ATOM     15  C11 UNL A   1      14.826  26.569  41.026  1.00  0.00    +0.000 C 
ATOM     16  C12 UNL A   1      14.612  25.551  41.966  1.00  0.00    +0.000 C 
ATOM    113  H21 UNL A   1      14.751  25.043  44.016  1.00  0.00    +0.000 H 
ATOM     27  C19 UNL A   1      14.921  25.782  43.316  1.00  0.00    +0.000 C 
ATOM     28  C20 UNL A   1      15.455  27.006  43.717  1.00  0.00    +0.000 C 
BRANCH   16   17
ATOM    109  H17 UNL A   1      13.428  23.583  43.525  1.00  0.00    +0.000 H 
ATOM    110  H18 UNL A   1      12.779  21.416  42.861  1.00  0.00    +0.000 H 
ATOM    112  H20 UNL A   1      14.521  24.536  39.586  1.00  0.00    +0.000 H 
ATOM     17  C13 UNL A   1      14.071  24.237  41.573  1.00  0.00    +0.000 C 
ATOM     18  C14 UNL A   1      13.526  23.300  42.537  1.00  0.00    +0.000 C 
ATOM     19  C15 UNL A   1      13.149  22.074  42.158  1.00  0.00    +0.000 C 
ATOM     20  N3  UNL A   1      13.249  21.676  40.839  1.00  0.00    +0.000 N 
ATOM     24  C17 UNL A   1      13.720  22.514  39.841  1.00  0.00    +0.000 C 
ATOM     25  O3  UNL A   1      13.824  22.226  38.653  1.00  0.00    +0.000 O 
ATOM     26  C18 UNL A   1      14.153  23.869  40.282  1.00  0.00    +0.000 C 
BRANCH   20   21
ATOM     21  C16 UNL A   1      12.883  20.338  40.450  1.00  0.00    +0.000 C 
ATOM     22  F1  UNL A   1      13.316  19.428  41.355  1.00  0.00    +0.000 F 
ATOM    111  H19 UNL A   1      13.345  20.152  39.503  1.00  0.00    +0.000 H 
ATOM     23  F2  UNL A   1      11.537  20.219  40.343  1.00  0.00    +0.000 F 
ENDBRANCH   20   21
ENDBRANCH   16   17
BRANCH   28   29
ATOM    114  H22 UNL A   1      15.489  26.579  45.677  1.00  0.00    +0.000 H 
ATOM     29  O4  UNL A   1      15.740  27.215  45.038  1.00  0.00    +0.000 O 
ENDBRANCH   28   29
ENDBRANCH   11   13
ENDBRANCH   10   11
ENDBRANCH    9   10
ENDBRANCH    8    9
ENDBRANCH    7    8
ENDBRANCH    6    7
ENDBRANCH    5    6
ENDBRANCH    4    5
ENDBRANCH    3    4
ENDBRANCH    2    3
ENDBRANCH   30    2
ENDBRANCH   34   33
BRANCH   38   39
ATOM     39  C29 UNL A   1      25.383  40.634  49.122  1.00  0.00    +0.000 C 
ATOM     40  C30 UNL A   1      24.604  41.713  48.680  1.00  0.00    +0.000 C 
ATOM     41  F3  UNL A   1      24.741  42.177  47.428  1.00  0.00    +0.000 F 
ATOM     42  C31 UNL A   1      23.690  42.331  49.529  1.00  0.00    +0.000 C 
ATOM     43  F4  UNL A   1      22.974  43.377  49.093  1.00  0.00    +0.000 F 
ATOM     44  C32 UNL A   1      23.517  41.867  50.824  1.00  0.00    +0.000 C 
ATOM     45  F5  UNL A   1      22.620  42.448  51.632  1.00  0.00    +0.000 F 
ATOM     46  C33 UNL A   1      24.275  40.798  51.281  1.00  0.00    +0.000 C 
ATOM     47  F6  UNL A   1      24.099  40.338  52.527  1.00  0.00    +0.000 F 
ATOM     48  C34 UNL A   1      25.209  40.195  50.443  1.00  0.00    +0.000 C 
ATOM     49  F7  UNL A   1      25.925  39.163  50.912  1.00  0.00    +0.000 F 
ENDBRANCH   38   39
BRANCH   55   56
ATOM     65  C45 UNL A   1      32.411  42.253  46.460  1.00  0.00    +0.000 C 
ATOM     66  F12 UNL A   1      31.453  42.743  45.660  1.00  0.00    +0.000 F 
ATOM     56  C40 UNL A   1      32.250  41.000  47.072  1.00  0.00    +0.000 C 
ATOM     57  C41 UNL A   1      33.285  40.526  47.890  1.00  0.00    +0.000 C 
ATOM     58  F8  UNL A   1      33.169  39.338  48.503  1.00  0.00    +0.000 F 
ATOM     59  C42 UNL A   1      34.439  41.278  48.088  1.00  0.00    +0.000 C 
ATOM     60  F9  UNL A   1      35.407  40.815  48.889  1.00  0.00    +0.000 F 
ATOM     61  C43 UNL A   1      34.590  42.503  47.453  1.00  0.00    +0.000 C 
ATOM     62  F10 UNL A   1      35.713  43.212  47.624  1.00  0.00    +0.000 F 
ATOM     63  C44 UNL A   1      33.578  42.990  46.639  1.00  0.00    +0.000 C 
ATOM     64  F11 UNL A   1      33.730  44.164  46.012  1.00  0.00    +0.000 F 
ENDBRANCH   55   56
BRANCH   70   71
ATOM     71  C49 UNL A   1      31.240  35.533  42.846  1.00  0.00    +0.000 C 
ATOM     72  C50 UNL A   1      31.404  35.922  41.508  1.00  0.00    +0.000 C 
ATOM     73  F13 UNL A   1      30.738  36.985  41.034  1.00  0.00    +0.000 F 
ATOM     74  C51 UNL A   1      32.226  35.201  40.644  1.00  0.00    +0.000 C 
ATOM     75  F14 UNL A   1      32.334  35.572  39.361  1.00  0.00    +0.000 F 
ATOM     76  C52 UNL A   1      32.921  34.094  41.106  1.00  0.00    +0.000 C 
ATOM     77  F15 UNL A   1      33.717  33.406  40.277  1.00  0.00    +0.000 F 
ATOM     78  C53 UNL A   1      32.785  33.698  42.428  1.00  0.00    +0.000 C 
ATOM     79  F16 UNL A   1      33.466  32.638  42.882  1.00  0.00    +0.000 F 
ATOM     80  C54 UNL A   1      31.943  34.402  43.286  1.00  0.00    +0.000 C 
ATOM     81  F17 UNL A   1      31.823  33.990  44.557  1.00  0.00    +0.000 F 
ENDBRANCH   70   71
TORSDOF 18
ENDMDL
MODEL 4
REMARK VINA RESULT:     -11.9     50.854     57.562
ROOT
ATOM     34  C25 UNL A   1       2.405  11.122  37.784  1.00  0.00    +0.000 C 
ATOM     35  C26 UNL A   1       3.444  10.041  37.919  1.00  0.00    +0.000 C 
ATOM     36  N4  UNL A   1       3.384   8.786  37.551  1.00  0.00    +0.000 N 
ATOM     37  C27 UNL A   1       4.615   8.235  37.882  1.00  0.00    +0.000 C 
ATOM     38  C28 UNL A   1       5.022   6.949  37.772  1.00  0.00    +0.000 C 
ATOM     50  C35 UNL A   1       4.201   5.882  37.267  1.00  0.00    +0.000 C 
ATOM     51  C36 UNL A   1       4.510   4.537  37.160  1.00  0.00    +0.000 C 
ATOM     52  C37 UNL A   1       3.417   3.883  36.589  1.00  0.00    +0.000 C 
ATOM     53  C38 UNL A   1       2.410   4.812  36.383  1.00  0.00    +0.000 C 
ATOM     54  N5  UNL A   1       2.907   6.036  36.796  1.00  0.00    +0.000 N 
ATOM     55  C39 UNL A   1       1.093   4.596  35.844  1.00  0.00    +0.000 C 
ATOM     67  C46 UNL A   1       0.158   5.560  35.663  1.00  0.00    +0.000 C 
ATOM     68  N6  UNL A   1       0.235   6.913  35.960  1.00  0.00    +0.000 N 
ATOM     69  C47 UNL A   1      -0.911   7.429  35.593  1.00  0.00    +0.000 C 
ATOM     70  C48 UNL A   1      -1.393   8.851  35.711  1.00  0.00    +0.000 C 
ATOM     82  C55 UNL A   1      -0.574   9.783  36.236  1.00  0.00    +0.000 C 
ATOM     83  C56 UNL A   1      -0.909  11.191  36.441  1.00  0.00    +0.000 C 
ATOM     84  C57 UNL A   1       0.144  11.818  36.990  1.00  0.00    +0.000 C 
ATOM     85  C58 UNL A   1       1.219  10.849  37.205  1.00  0.00    +0.000 C 
ATOM     86  N7  UNL A   1       0.715   9.675  36.700  1.00  0.00    +0.000 N 
ATOM     87  C59 UNL A   1      -1.839   6.460  34.992  1.00  0.00    +0.000 C 
ATOM     88  C60 UNL A   1      -1.153   5.329  35.094  1.00  0.00    +0.000 C 
ATOM     89  C61 UNL A   1       5.426   9.300  38.428  1.00  0.00    +0.000 C 
ATOM     90  C62 UNL A   1       4.726  10.421  38.534  1.00  0.00    +0.000 C 
ATOM    117  H25 UNL A   1       5.395   4.094  37.452  1.00  0.00    +0.000 H 
ATOM    118  H26 UNL A   1       3.367   2.877  36.359  1.00  0.00    +0.000 H 
ATOM    119  H27 UNL A   1       2.416   6.889  36.760  1.00  0.00    +0.000 H 
ATOM    120  H28 UNL A   1      -1.811  11.631  36.202  1.00  0.00    +0.000 H 
ATOM    121  H29 UNL A   1       0.187  12.822  37.222  1.00  0.00    +0.000 H 
ATOM    122  H30 UNL A   1       1.229   8.837  36.674  1.00  0.00    +0.000 H 
ATOM    123  H31 UNL A   1      -2.778   6.617  34.595  1.00  0.00    +0.000 H 
ATOM    124  H32 UNL A   1      -1.507   4.404  34.806  1.00  0.00    +0.000 H 
ATOM    125  H33 UNL A   1       6.417   9.201  38.699  1.00  0.00    +0.000 H 
ATOM    126  H34 UNL A   1       5.009  11.326  38.941  1.00  0.00    +0.000 H 
ENDROOT
BRANCH   34   33
ATOM     33  C24 UNL A   1       2.689  12.492  38.285  1.00  0.00    +0.000 C 
ATOM    127  H35 UNL A   1       3.466  13.211  36.455  1.00  0.00    +0.000 H 
ATOM    115  H23 UNL A   1       2.479  14.370  41.067  1.00  0.00    +0.000 H 
ATOM    116  H24 UNL A   1       1.983  12.142  40.248  1.00  0.00    +0.000 H 
ATOM     91  C63 UNL A   1       3.293  13.439  37.446  1.00  0.00    +0.000 C 
ATOM     92  C64 UNL A   1       3.659  14.689  37.944  1.00  0.00    +0.000 C 
ATOM     32  C23 UNL A   1       2.411  12.837  39.617  1.00  0.00    +0.000 C 
ATOM     30  C21 UNL A   1       3.326  15.047  39.254  1.00  0.00    +0.000 C 
ATOM     31  C22 UNL A   1       2.711  14.114  40.094  1.00  0.00    +0.000 C 
ATOM    128  H36 UNL A   1       4.177  15.350  37.344  1.00  0.00    +0.000 H 
BRANCH   30    2
ATOM      1  O1  UNL A   1       3.012  17.361  39.474  1.00  0.00    +0.000 O 
ATOM      2  C1  UNL A   1       3.668  16.377  39.810  1.00  0.00    +0.000 C 
BRANCH    2    3
ATOM      3  N1  UNL A   1       4.713  16.525  40.684  1.00  0.00    +0.000 N 
ATOM     93  H1  UNL A   1       4.459  16.574  41.634  1.00  0.00    +0.000 H 
BRANCH    3    4
ATOM      4  C2  UNL A   1       6.137  16.621  40.422  1.00  0.00    +0.000 C 
ATOM     94  H2  UNL A   1       6.623  16.996  41.297  1.00  0.00    +0.000 H 
ATOM     95  H3  UNL A   1       6.270  17.276  39.586  1.00  0.00    +0.000 H 
BRANCH    4    5
ATOM     97  H5  UNL A   1       6.453  14.594  40.825  1.00  0.00    +0.000 H 
ATOM      5  C3  UNL A   1       6.756  15.275  40.057  1.00  0.00    +0.000 C 
ATOM     96  H4  UNL A   1       6.407  15.005  39.081  1.00  0.00    +0.000 H 
BRANCH    5    6
ATOM     98  H6  UNL A   1       8.588  14.295  39.638  1.00  0.00    +0.000 H 
ATOM     99  H7  UNL A   1       8.593  15.399  41.052  1.00  0.00    +0.000 H 
ATOM      6  C4  UNL A   1       8.286  15.239  40.039  1.00  0.00    +0.000 C 
BRANCH    6    7
ATOM    100  H8  UNL A   1       8.215  16.815  38.623  1.00  0.00    +0.000 H 
ATOM    101  H9  UNL A   1       9.726  15.849  38.647  1.00  0.00    +0.000 H 
ATOM      7  C5  UNL A   1       8.965  16.339  39.218  1.00  0.00    +0.000 C 
BRANCH    7    8
ATOM    102  H10 UNL A   1       9.961  17.001  40.972  1.00  0.00    +0.000 H 
ATOM    103  H11 UNL A   1       8.991  18.236  40.111  1.00  0.00    +0.000 H 
ATOM      8  C6  UNL A   1       9.682  17.422  40.028  1.00  0.00    +0.000 C 
BRANCH    8    9
ATOM      9  C7  UNL A   1      10.936  17.996  39.378  1.00  0.00    +0.000 C 
ATOM    105  H13 UNL A   1      11.710  17.259  39.449  1.00  0.00    +0.000 H 
ATOM    104  H12 UNL A   1      10.718  18.234  38.358  1.00  0.00    +0.000 H 
BRANCH    9   10
ATOM     10  N2  UNL A   1      11.402  19.195  40.048  1.00  0.00    +0.000 N 
ATOM    106  H14 UNL A   1      10.723  19.891  40.205  1.00  0.00    +0.000 H 
BRANCH   10   11
ATOM     11  C8  UNL A   1      12.670  19.484  40.489  1.00  0.00    +0.000 C 
ATOM     12  O2  UNL A   1      13.509  18.594  40.601  1.00  0.00    +0.000 O 
BRANCH   11   13
ATOM    107  H15 UNL A   1      12.456  20.776  42.768  1.00  0.00    +0.000 H 
ATOM    108  H16 UNL A   1      13.127  23.046  43.311  1.00  0.00    +0.000 H 
ATOM     13  C9  UNL A   1      13.056  20.885  40.746  1.00  0.00    +0.000 C 
ATOM     14  C10 UNL A   1      12.874  21.378  42.042  1.00  0.00    +0.000 C 
ATOM     15  C11 UNL A   1      13.257  22.685  42.353  1.00  0.00    +0.000 C 
ATOM     16  C12 UNL A   1      13.817  23.507  41.366  1.00  0.00    +0.000 C 
ATOM    113  H21 UNL A   1      14.362  23.623  39.324  1.00  0.00    +0.000 H 
ATOM     27  C19 UNL A   1      13.964  23.017  40.059  1.00  0.00    +0.000 C 
ATOM     28  C20 UNL A   1      13.574  21.715  39.748  1.00  0.00    +0.000 C 
BRANCH   16   17
ATOM    109  H17 UNL A   1      14.300  25.631  39.645  1.00  0.00    +0.000 H 
ATOM    110  H18 UNL A   1      15.214  27.738  40.177  1.00  0.00    +0.000 H 
ATOM    112  H20 UNL A   1      14.312  24.527  43.694  1.00  0.00    +0.000 H 
ATOM     17  C13 UNL A   1      14.263  24.881  41.666  1.00  0.00    +0.000 C 
ATOM     18  C14 UNL A   1      14.515  25.862  40.627  1.00  0.00    +0.000 C 
ATOM     19  C15 UNL A   1      15.025  27.060  40.931  1.00  0.00    +0.000 C 
ATOM     20  N3  UNL A   1      15.304  27.403  42.240  1.00  0.00    +0.000 N 
ATOM     24  C17 UNL A   1      15.059  26.548  43.303  1.00  0.00    +0.000 C 
ATOM     25  O3  UNL A   1      15.274  26.795  44.485  1.00  0.00    +0.000 O 
ATOM     26  C18 UNL A   1      14.508  25.211  42.947  1.00  0.00    +0.000 C 
BRANCH   20   21
ATOM     21  C16 UNL A   1      15.895  28.679  42.550  1.00  0.00    +0.000 C 
ATOM     22  F1  UNL A   1      15.269  29.270  43.596  1.00  0.00    +0.000 F 
ATOM    111  H19 UNL A   1      15.793  29.289  41.677  1.00  0.00    +0.000 H 
ATOM     23  F2  UNL A   1      17.206  28.538  42.869  1.00  0.00    +0.000 F 
ENDBRANCH   20   21
ENDBRANCH   16   17
BRANCH   28   29
ATOM    114  H22 UNL A   1      13.055  20.716  38.086  1.00  0.00    +0.000 H 
ATOM     29  O4  UNL A   1      13.717  21.258  38.466  1.00  0.00    +0.000 O 
ENDBRANCH   28   29
ENDBRANCH   11   13
ENDBRANCH   10   11
ENDBRANCH    9   10
ENDBRANCH    8    9
ENDBRANCH    7    8
ENDBRANCH    6    7
ENDBRANCH    5    6
ENDBRANCH    4    5
ENDBRANCH    3    4
ENDBRANCH    2    3
ENDBRANCH   30    2
ENDBRANCH   34   33
BRANCH   38   39
ATOM     39  C29 UNL A   1       6.408   6.605  38.231  1.00  0.00    +0.000 C 
ATOM     40  C30 UNL A   1       6.624   5.881  39.412  1.00  0.00    +0.000 C 
ATOM     41  F3  UNL A   1       5.592   5.565  40.209  1.00  0.00    +0.000 F 
ATOM     42  C31 UNL A   1       7.906   5.490  39.787  1.00  0.00    +0.000 C 
ATOM     43  F4  UNL A   1       8.092   4.821  40.933  1.00  0.00    +0.000 F 
ATOM     44  C32 UNL A   1       8.991   5.792  38.978  1.00  0.00    +0.000 C 
ATOM     45  F5  UNL A   1      10.222   5.394  39.329  1.00  0.00    +0.000 F 
ATOM     46  C33 UNL A   1       8.800   6.504  37.803  1.00  0.00    +0.000 C 
ATOM     47  F6  UNL A   1       9.845   6.783  37.011  1.00  0.00    +0.000 F 
ATOM     48  C34 UNL A   1       7.522   6.920  37.438  1.00  0.00    +0.000 C 
ATOM     49  F7  UNL A   1       7.367   7.605  36.296  1.00  0.00    +0.000 F 
ENDBRANCH   38   39
BRANCH   55   56
ATOM     65  C45 UNL A   1       0.072   2.355  36.370  1.00  0.00    +0.000 C 
ATOM     66  F12 UNL A   1      -0.332   2.833  37.555  1.00  0.00    +0.000 F 
ATOM     56  C40 UNL A   1       0.737   3.190  35.459  1.00  0.00    +0.000 C 
ATOM     57  C41 UNL A   1       1.150   2.640  34.238  1.00  0.00    +0.000 C 
ATOM     58  F8  UNL A   1       1.779   3.405  33.332  1.00  0.00    +0.000 F 
ATOM     59  C42 UNL A   1       0.907   1.303  33.940  1.00  0.00    +0.000 C 
ATOM     60  F9  UNL A   1       1.293   0.802  32.759  1.00  0.00    +0.000 F 
ATOM     61  C43 UNL A   1       0.272   0.487  34.864  1.00  0.00    +0.000 C 
ATOM     62  F10 UNL A   1       0.064  -0.807  34.586  1.00  0.00    +0.000 F 
ATOM     63  C44 UNL A   1      -0.144   1.011  36.079  1.00  0.00    +0.000 C 
ATOM     64  F11 UNL A   1      -0.743   0.220  36.980  1.00  0.00    +0.000 F 
ENDBRANCH   55   56
BRANCH   70   71
ATOM     71  C49 UNL A   1      -2.770   9.226  35.294  1.00  0.00    +0.000 C 
ATOM     72  C50 UNL A   1      -3.853   9.078  36.172  1.00  0.00    +0.000 C 
ATOM     73  F13 UNL A   1      -3.655   8.571  37.398  1.00  0.00    +0.000 F 
ATOM     74  C51 UNL A   1      -5.147   9.419  35.785  1.00  0.00    +0.000 C 
ATOM     75  F14 UNL A   1      -6.169   9.231  36.631  1.00  0.00    +0.000 F 
ATOM     76  C52 UNL A   1      -5.381   9.939  34.522  1.00  0.00    +0.000 C 
ATOM     77  F15 UNL A   1      -6.624  10.274  34.151  1.00  0.00    +0.000 F 
ATOM     78  C53 UNL A   1      -4.324  10.107  33.639  1.00  0.00    +0.000 C 
ATOM     79  F16 UNL A   1      -4.543  10.623  32.422  1.00  0.00    +0.000 F 
ATOM     80  C54 UNL A   1      -3.033   9.742  34.016  1.00  0.00    +0.000 C 
ATOM     81  F17 UNL A   1      -2.032   9.905  33.139  1.00  0.00    +0.000 F 
ENDBRANCH   70   71
TORSDOF 18
ENDMDL
MODEL 5
REMARK VINA RESULT:     -11.7     40.430     47.075
ROOT
ATOM     34  C25 UNL A   1      26.125  35.623  45.811  1.00  0.00    +0.000 C 
ATOM     35  C26 UNL A   1      27.423  35.588  45.051  1.00  0.00    +0.000 C 
ATOM     36  N4  UNL A   1      28.470  36.367  45.165  1.00  0.00    +0.000 N 
ATOM     37  C27 UNL A   1      29.399  35.889  44.251  1.00  0.00    +0.000 C 
ATOM     38  C28 UNL A   1      30.612  36.399  43.935  1.00  0.00    +0.000 C 
ATOM     50  C35 UNL A   1      31.169  37.586  44.525  1.00  0.00    +0.000 C 
ATOM     51  C36 UNL A   1      32.371  38.207  44.236  1.00  0.00    +0.000 C 
ATOM     52  C37 UNL A   1      32.504  39.313  45.078  1.00  0.00    +0.000 C 
ATOM     53  C38 UNL A   1      31.364  39.408  45.859  1.00  0.00    +0.000 C 
ATOM     54  N5  UNL A   1      30.556  38.337  45.515  1.00  0.00    +0.000 N 
ATOM     55  C39 UNL A   1      31.040  40.402  46.849  1.00  0.00    +0.000 C 
ATOM     67  C46 UNL A   1      29.902  40.426  47.583  1.00  0.00    +0.000 C 
ATOM     68  N6  UNL A   1      28.822  39.556  47.544  1.00  0.00    +0.000 N 
ATOM     69  C47 UNL A   1      27.978  39.987  48.448  1.00  0.00    +0.000 C 
ATOM     70  C48 UNL A   1      26.621  39.446  48.814  1.00  0.00    +0.000 C 
ATOM     82  C55 UNL A   1      26.155  38.351  48.181  1.00  0.00    +0.000 C 
ATOM     83  C56 UNL A   1      24.852  37.730  48.406  1.00  0.00    +0.000 C 
ATOM     84  C57 UNL A   1      24.727  36.666  47.596  1.00  0.00    +0.000 C 
ATOM     85  C58 UNL A   1      25.930  36.548  46.771  1.00  0.00    +0.000 C 
ATOM     86  N7  UNL A   1      26.734  37.572  47.208  1.00  0.00    +0.000 N 
ATOM     87  C59 UNL A   1      28.444  41.170  49.187  1.00  0.00    +0.000 C 
ATOM     88  C60 UNL A   1      29.605  41.419  48.594  1.00  0.00    +0.000 C 
ATOM     89  C61 UNL A   1      28.822  34.719  43.628  1.00  0.00    +0.000 C 
ATOM     90  C62 UNL A   1      27.577  34.529  44.039  1.00  0.00    +0.000 C 
ATOM    117  H25 UNL A   1      33.053  37.905  43.522  1.00  0.00    +0.000 H 
ATOM    118  H26 UNL A   1      33.315  39.952  45.112  1.00  0.00    +0.000 H 
ATOM    119  H27 UNL A   1      29.678  38.139  45.915  1.00  0.00    +0.000 H 
ATOM    120  H28 UNL A   1      24.143  38.057  49.079  1.00  0.00    +0.000 H 
ATOM    121  H29 UNL A   1      23.913  36.033  47.562  1.00  0.00    +0.000 H 
ATOM    122  H30 UNL A   1      27.639  37.732  46.857  1.00  0.00    +0.000 H 
ATOM    123  H31 UNL A   1      27.989  41.674  49.963  1.00  0.00    +0.000 H 
ATOM    124  H32 UNL A   1      30.217  42.217  48.824  1.00  0.00    +0.000 H 
ATOM    125  H33 UNL A   1      29.314  34.113  42.953  1.00  0.00    +0.000 H 
ATOM    126  H34 UNL A   1      26.892  33.822  43.730  1.00  0.00    +0.000 H 
ENDROOT
BRANCH   34   33
ATOM     33  C24 UNL A   1      25.059  34.633  45.507  1.00  0.00    +0.000 C 
ATOM    127  H35 UNL A   1      25.724  33.195  46.907  1.00  0.00    +0.000 H 
ATOM    115  H23 UNL A   1      22.388  34.174  43.515  1.00  0.00    +0.000 H 
ATOM    116  H24 UNL A   1      24.105  35.808  44.029  1.00  0.00    +0.000 H 
ATOM     91  C63 UNL A   1      25.043  33.391  46.157  1.00  0.00    +0.000 C 
ATOM     92  C64 UNL A   1      24.110  32.419  45.795  1.00  0.00    +0.000 C 
ATOM     32  C23 UNL A   1      24.092  34.904  44.526  1.00  0.00    +0.000 C 
ATOM     30  C21 UNL A   1      23.114  32.716  44.861  1.00  0.00    +0.000 C 
ATOM     31  C22 UNL A   1      23.113  33.957  44.218  1.00  0.00    +0.000 C 
ATOM    128  H36 UNL A   1      24.156  31.479  46.219  1.00  0.00    +0.000 H 
BRANCH   30    2
ATOM      1  O1  UNL A   1      22.297  30.527  44.661  1.00  0.00    +0.000 O 
ATOM      2  C1  UNL A   1      22.084  31.723  44.475  1.00  0.00    +0.000 C 
BRANCH    2    3
ATOM      3  N1  UNL A   1      20.905  32.121  43.902  1.00  0.00    +0.000 N 
ATOM     93  H1  UNL A   1      20.941  32.265  42.929  1.00  0.00    +0.000 H 
BRANCH    3    4
ATOM      4  C2  UNL A   1      19.611  32.362  44.514  1.00  0.00    +0.000 C 
ATOM     94  H2  UNL A   1      19.763  32.714  45.512  1.00  0.00    +0.000 H 
ATOM     95  H3  UNL A   1      19.068  31.440  44.499  1.00  0.00    +0.000 H 
BRANCH    4    5
ATOM     97  H5  UNL A   1      19.492  34.097  43.352  1.00  0.00    +0.000 H 
ATOM      5  C3  UNL A   1      18.788  33.396  43.751  1.00  0.00    +0.000 C 
ATOM     96  H4  UNL A   1      18.224  32.880  43.001  1.00  0.00    +0.000 H 
BRANCH    5    6
ATOM     98  H6  UNL A   1      18.068  35.246  44.492  1.00  0.00    +0.000 H 
ATOM     99  H7  UNL A   1      17.912  33.843  45.598  1.00  0.00    +0.000 H 
ATOM      6  C4  UNL A   1      17.812  34.213  44.599  1.00  0.00    +0.000 C 
BRANCH    6    7
ATOM    100  H8  UNL A   1      16.190  34.431  43.251  1.00  0.00    +0.000 H 
ATOM    101  H9  UNL A   1      15.791  34.597  44.992  1.00  0.00    +0.000 H 
ATOM      7  C5  UNL A   1      16.331  34.056  44.243  1.00  0.00    +0.000 C 
BRANCH    7    8
ATOM    102  H10 UNL A   1      14.811  32.655  44.720  1.00  0.00    +0.000 H 
ATOM    103  H11 UNL A   1      16.493  32.058  44.858  1.00  0.00    +0.000 H 
ATOM      8  C6  UNL A   1      15.788  32.625  44.286  1.00  0.00    +0.000 C 
BRANCH    8    9
ATOM      9  C7  UNL A   1      15.684  31.929  42.933  1.00  0.00    +0.000 C 
ATOM    105  H13 UNL A   1      14.895  32.398  42.382  1.00  0.00    +0.000 H 
ATOM    104  H12 UNL A   1      16.621  32.022  42.424  1.00  0.00    +0.000 H 
BRANCH    9   10
ATOM     10  N2  UNL A   1      15.360  30.521  43.064  1.00  0.00    +0.000 N 
ATOM    106  H14 UNL A   1      14.414  30.313  43.242  1.00  0.00    +0.000 H 
BRANCH   10   11
ATOM     11  C8  UNL A   1      16.205  29.443  42.974  1.00  0.00    +0.000 C 
ATOM     12  O2  UNL A   1      17.406  29.571  43.198  1.00  0.00    +0.000 O 
BRANCH   11   13
ATOM    107  H15 UNL A   1      15.610  28.457  40.610  1.00  0.00    +0.000 H 
ATOM    108  H16 UNL A   1      14.776  26.249  40.038  1.00  0.00    +0.000 H 
ATOM     13  C9  UNL A   1      15.656  28.102  42.693  1.00  0.00    +0.000 C 
ATOM     14  C10 UNL A   1      15.424  27.766  41.355  1.00  0.00    +0.000 C 
ATOM     15  C11 UNL A   1      14.942  26.498  41.026  1.00  0.00    +0.000 C 
ATOM     16  C12 UNL A   1      14.682  25.561  42.035  1.00  0.00    +0.000 C 
ATOM    113  H21 UNL A   1      14.678  25.237  44.127  1.00  0.00    +0.000 H 
ATOM     27  C19 UNL A   1      14.883  25.917  43.378  1.00  0.00    +0.000 C 
ATOM     28  C20 UNL A   1      15.358  27.187  43.706  1.00  0.00    +0.000 C 
BRANCH   16   17
ATOM    109  H17 UNL A   1      14.340  23.373  43.709  1.00  0.00    +0.000 H 
ATOM    110  H18 UNL A   1      13.769  21.168  43.100  1.00  0.00    +0.000 H 
ATOM    112  H20 UNL A   1      13.914  24.653  39.735  1.00  0.00    +0.000 H 
ATOM     17  C13 UNL A   1      14.202  24.201  41.723  1.00  0.00    +0.000 C 
ATOM     18  C14 UNL A   1      14.130  23.153  42.723  1.00  0.00    +0.000 C 
ATOM     19  C15 UNL A   1      13.798  21.904  42.378  1.00  0.00    +0.000 C 
ATOM     20  N3  UNL A   1      13.493  21.586  41.068  1.00  0.00    +0.000 N 
ATOM     24  C17 UNL A   1      13.495  22.527  40.052  1.00  0.00    +0.000 C 
ATOM     25  O3  UNL A   1      13.226  22.312  38.875  1.00  0.00    +0.000 O 
ATOM     26  C18 UNL A   1      13.886  23.909  40.449  1.00  0.00    +0.000 C 
BRANCH   20   21
ATOM     21  C16 UNL A   1      13.181  20.228  40.701  1.00  0.00    +0.000 C 
ATOM     22  F1  UNL A   1      13.558  19.358  41.668  1.00  0.00    +0.000 F 
ATOM    111  H19 UNL A   1      13.718  20.019  39.799  1.00  0.00    +0.000 H 
ATOM     23  F2  UNL A   1      11.849  20.079  40.494  1.00  0.00    +0.000 F 
ENDBRANCH   20   21
ENDBRANCH   16   17
BRANCH   28   29
ATOM    114  H22 UNL A   1      15.894  26.890  45.616  1.00  0.00    +0.000 H 
ATOM     29  O4  UNL A   1      15.539  27.519  45.020  1.00  0.00    +0.000 O 
ENDBRANCH   28   29
ENDBRANCH   11   13
ENDBRANCH   10   11
ENDBRANCH    9   10
ENDBRANCH    8    9
ENDBRANCH    7    8
ENDBRANCH    6    7
ENDBRANCH    5    6
ENDBRANCH    4    5
ENDBRANCH    3    4
ENDBRANCH    2    3
ENDBRANCH   30    2
ENDBRANCH   34   33
BRANCH   38   39
ATOM     39  C29 UNL A   1      31.419  35.700  42.881  1.00  0.00    +0.000 C 
ATOM     40  C30 UNL A   1      32.173  34.557  43.182  1.00  0.00    +0.000 C 
ATOM     41  F3  UNL A   1      32.265  34.121  44.447  1.00  0.00    +0.000 F 
ATOM     42  C31 UNL A   1      32.850  33.863  42.182  1.00  0.00    +0.000 C 
ATOM     43  F4  UNL A   1      33.585  32.788  42.496  1.00  0.00    +0.000 F 
ATOM     44  C32 UNL A   1      32.764  34.282  40.863  1.00  0.00    +0.000 C 
ATOM     45  F5  UNL A   1      33.397  33.600  39.899  1.00  0.00    +0.000 F 
ATOM     46  C33 UNL A   1      32.021  35.409  40.543  1.00  0.00    +0.000 C 
ATOM     47  F6  UNL A   1      31.924  35.806  39.267  1.00  0.00    +0.000 F 
ATOM     48  C34 UNL A   1      31.364  36.120  41.544  1.00  0.00    +0.000 C 
ATOM     49  F7  UNL A   1      30.651  37.204  41.204  1.00  0.00    +0.000 F 
ENDBRANCH   38   39
BRANCH   55   56
ATOM     65  C45 UNL A   1      31.868  42.751  46.481  1.00  0.00    +0.000 C 
ATOM     66  F12 UNL A   1      30.753  43.020  45.786  1.00  0.00    +0.000 F 
ATOM     56  C40 UNL A   1      32.047  41.491  47.074  1.00  0.00    +0.000 C 
ATOM     57  C41 UNL A   1      33.233  41.255  47.780  1.00  0.00    +0.000 C 
ATOM     58  F8  UNL A   1      33.441  40.070  48.372  1.00  0.00    +0.000 F 
ATOM     59  C42 UNL A   1      34.207  42.244  47.888  1.00  0.00    +0.000 C 
ATOM     60  F9  UNL A   1      35.326  42.004  48.584  1.00  0.00    +0.000 F 
ATOM     61  C43 UNL A   1      34.024  43.473  47.272  1.00  0.00    +0.000 C 
ATOM     62  F10 UNL A   1      34.975  44.413  47.355  1.00  0.00    +0.000 F 
ATOM     63  C44 UNL A   1      32.856  43.727  46.568  1.00  0.00    +0.000 C 
ATOM     64  F11 UNL A   1      32.685  44.908  45.959  1.00  0.00    +0.000 F 
ENDBRANCH   55   56
BRANCH   70   71
ATOM     71  C49 UNL A   1      25.779  40.126  49.833  1.00  0.00    +0.000 C 
ATOM     72  C50 UNL A   1      25.884  39.794  51.191  1.00  0.00    +0.000 C 
ATOM     73  F13 UNL A   1      26.737  38.835  51.581  1.00  0.00    +0.000 F 
ATOM     74  C51 UNL A   1      25.091  40.421  52.150  1.00  0.00    +0.000 C 
ATOM     75  F14 UNL A   1      25.185  40.056  53.436  1.00  0.00    +0.000 F 
ATOM     76  C52 UNL A   1      24.197  41.410  51.774  1.00  0.00    +0.000 C 
ATOM     77  F15 UNL A   1      23.439  42.019  52.697  1.00  0.00    +0.000 F 
ATOM     78  C53 UNL A   1      24.084  41.766  50.438  1.00  0.00    +0.000 C 
ATOM     79  F16 UNL A   1      23.231  42.732  50.073  1.00  0.00    +0.000 F 
ATOM     80  C54 UNL A   1      24.857  41.121  49.475  1.00  0.00    +0.000 C 
ATOM     81  F17 UNL A   1      24.719  41.478  48.190  1.00  0.00    +0.000 F 
ENDBRANCH   70   71
TORSDOF 18
ENDMDL
MODEL 6
REMARK VINA RESULT:     -11.5     45.447     49.104
ROOT
ATOM     34  C25 UNL A   1       7.399   2.996  26.145  1.00  0.00    +0.000 C 
ATOM     35  C26 UNL A   1       8.576   3.312  27.029  1.00  0.00    +0.000 C 
ATOM     36  N4  UNL A   1       9.042   4.478  27.400  1.00  0.00    +0.000 N 
ATOM     37  C27 UNL A   1      10.121   4.208  28.231  1.00  0.00    +0.000 C 
ATOM     38  C28 UNL A   1      10.981   5.079  28.808  1.00  0.00    +0.000 C 
ATOM     50  C35 UNL A   1      10.916   6.506  28.647  1.00  0.00    +0.000 C 
ATOM     51  C36 UNL A   1      11.771   7.468  29.156  1.00  0.00    +0.000 C 
ATOM     52  C37 UNL A   1      11.299   8.722  28.762  1.00  0.00    +0.000 C 
ATOM     53  C38 UNL A   1      10.177   8.539  27.970  1.00  0.00    +0.000 C 
ATOM     54  N5  UNL A   1       9.948   7.174  27.915  1.00  0.00    +0.000 N 
ATOM     55  C39 UNL A   1       9.372   9.538  27.318  1.00  0.00    +0.000 C 
ATOM     67  C46 UNL A   1       8.278   9.283  26.561  1.00  0.00    +0.000 C 
ATOM     68  N6  UNL A   1       7.713   8.059  26.232  1.00  0.00    +0.000 N 
ATOM     69  C47 UNL A   1       6.666   8.332  25.494  1.00  0.00    +0.000 C 
ATOM     70  C48 UNL A   1       5.700   7.385  24.833  1.00  0.00    +0.000 C 
ATOM     82  C55 UNL A   1       5.857   6.057  25.001  1.00  0.00    +0.000 C 
ATOM     83  C56 UNL A   1       5.021   5.020  24.402  1.00  0.00    +0.000 C 
ATOM     84  C57 UNL A   1       5.476   3.815  24.782  1.00  0.00    +0.000 C 
ATOM     85  C58 UNL A   1       6.657   3.994  25.628  1.00  0.00    +0.000 C 
ATOM     86  N7  UNL A   1       6.790   5.357  25.727  1.00  0.00    +0.000 N 
ATOM     87  C59 UNL A   1       6.432   9.769  25.294  1.00  0.00    +0.000 C 
ATOM     88  C60 UNL A   1       7.465  10.303  25.933  1.00  0.00    +0.000 C 
ATOM     89  C61 UNL A   1      10.211   2.771  28.359  1.00  0.00    +0.000 C 
ATOM     90  C62 UNL A   1       9.321   2.170  27.583  1.00  0.00    +0.000 C 
ATOM    117  H25 UNL A   1      12.611   7.290  29.727  1.00  0.00    +0.000 H 
ATOM    118  H26 UNL A   1      11.716   9.632  29.018  1.00  0.00    +0.000 H 
ATOM    119  H27 UNL A   1       9.209   6.744  27.428  1.00  0.00    +0.000 H 
ATOM    120  H28 UNL A   1       4.211   5.187  23.786  1.00  0.00    +0.000 H 
ATOM    121  H29 UNL A   1       5.059   2.908  24.520  1.00  0.00    +0.000 H 
ATOM    122  H30 UNL A   1       7.489   5.791  26.268  1.00  0.00    +0.000 H 
ATOM    123  H31 UNL A   1       5.665  10.241  24.790  1.00  0.00    +0.000 H 
ATOM    124  H32 UNL A   1       7.663  11.315  25.978  1.00  0.00    +0.000 H 
ATOM    125  H33 UNL A   1      10.880   2.279  28.973  1.00  0.00    +0.000 H 
ATOM    126  H34 UNL A   1       9.185   1.161  27.413  1.00  0.00    +0.000 H 
ENDROOT
BRANCH   34   33
ATOM     33  C24 UNL A   1       7.052   1.582  25.848  1.00  0.00    +0.000 C 
ATOM    127  H35 UNL A   1       8.327   1.419  24.169  1.00  0.00    +0.000 H 
ATOM    115  H23 UNL A   1       5.104  -0.933  26.938  1.00  0.00    +0.000 H 
ATOM    116  H24 UNL A   1       5.689   1.364  27.451  1.00  0.00    +0.000 H 
ATOM     91  C63 UNL A   1       7.611   0.937  24.735  1.00  0.00    +0.000 C 
ATOM     92  C64 UNL A   1       7.206  -0.352  24.390  1.00  0.00    +0.000 C 
ATOM     32  C23 UNL A   1       6.120   0.893  26.639  1.00  0.00    +0.000 C 
ATOM     30  C21 UNL A   1       6.322  -1.053  25.216  1.00  0.00    +0.000 C 
ATOM     31  C22 UNL A   1       5.770  -0.424  26.336  1.00  0.00    +0.000 C 
ATOM    128  H36 UNL A   1       7.559  -0.788  23.525  1.00  0.00    +0.000 H 
BRANCH   30    2
ATOM      1  O1  UNL A   1       5.310  -2.665  23.845  1.00  0.00    +0.000 O 
ATOM      2  C1  UNL A   1       5.893  -2.436  24.903  1.00  0.00    +0.000 C 
BRANCH    2    3
ATOM      3  N1  UNL A   1       6.127  -3.460  25.783  1.00  0.00    +0.000 N 
ATOM     93  H1  UNL A   1       5.331  -3.980  26.040  1.00  0.00    +0.000 H 
BRANCH    3    4
ATOM      4  C2  UNL A   1       7.370  -3.894  26.394  1.00  0.00    +0.000 C 
ATOM     94  H2  UNL A   1       7.249  -4.898  26.741  1.00  0.00    +0.000 H 
ATOM     95  H3  UNL A   1       7.587  -3.223  27.199  1.00  0.00    +0.000 H 
BRANCH    4    5
ATOM     97  H5  UNL A   1       9.034  -4.797  25.507  1.00  0.00    +0.000 H 
ATOM      5  C3  UNL A   1       8.545  -3.849  25.423  1.00  0.00    +0.000 C 
ATOM     96  H4  UNL A   1       8.157  -3.651  24.445  1.00  0.00    +0.000 H 
BRANCH    5    6
ATOM     98  H6  UNL A   1       9.550  -2.036  24.979  1.00  0.00    +0.000 H 
ATOM     99  H7  UNL A   1      10.544  -3.318  25.745  1.00  0.00    +0.000 H 
ATOM      6  C4  UNL A   1       9.610  -2.794  25.731  1.00  0.00    +0.000 C 
BRANCH    6    7
ATOM    100  H8  UNL A   1       9.102  -2.828  27.789  1.00  0.00    +0.000 H 
ATOM    101  H9  UNL A   1       8.861  -1.263  26.947  1.00  0.00    +0.000 H 
ATOM      7  C5  UNL A   1       9.494  -2.113  27.097  1.00  0.00    +0.000 C 
BRANCH    7    8
ATOM    102  H10 UNL A   1      10.635  -1.337  28.709  1.00  0.00    +0.000 H 
ATOM    103  H11 UNL A   1      11.052  -0.709  27.085  1.00  0.00    +0.000 H 
ATOM      8  C6  UNL A   1      10.801  -1.565  27.677  1.00  0.00    +0.000 C 
BRANCH    8    9
ATOM      9  C7  UNL A   1      11.996  -2.508  27.587  1.00  0.00    +0.000 C 
ATOM    105  H13 UNL A   1      12.595  -2.364  28.463  1.00  0.00    +0.000 H 
ATOM    104  H12 UNL A   1      11.638  -3.514  27.522  1.00  0.00    +0.000 H 
BRANCH    9   10
ATOM     10  N2  UNL A   1      12.827  -2.231  26.431  1.00  0.00    +0.000 N 
ATOM    106  H14 UNL A   1      13.026  -3.002  25.850  1.00  0.00    +0.000 H 
BRANCH   10   11
ATOM     11  C8  UNL A   1      13.373  -1.033  26.045  1.00  0.00    +0.000 C 
ATOM     12  O2  UNL A   1      14.502  -0.715  26.411  1.00  0.00    +0.000 O 
BRANCH   11   13
ATOM    107  H15 UNL A   1      12.110   1.192  26.649  1.00  0.00    +0.000 H 
ATOM    108  H16 UNL A   1      10.938   2.734  25.184  1.00  0.00    +0.000 H 
ATOM     13  C9  UNL A   1      12.638  -0.157  25.111  1.00  0.00    +0.000 C 
ATOM     14  C10 UNL A   1      12.046   0.996  25.638  1.00  0.00    +0.000 C 
ATOM     15  C11 UNL A   1      11.370   1.881  24.796  1.00  0.00    +0.000 C 
ATOM     16  C12 UNL A   1      11.275   1.613  23.423  1.00  0.00    +0.000 C 
ATOM    113  H21 UNL A   1      11.760   0.225  21.901  1.00  0.00    +0.000 H 
ATOM     27  C19 UNL A   1      11.840   0.436  22.908  1.00  0.00    +0.000 C 
ATOM     28  C20 UNL A   1      12.509  -0.451  23.751  1.00  0.00    +0.000 C 
BRANCH   16   17
ATOM    109  H17 UNL A   1      11.597   1.942  20.686  1.00  0.00    +0.000 H 
ATOM    110  H18 UNL A   1      10.628   3.592  19.309  1.00  0.00    +0.000 H 
ATOM    112  H20 UNL A   1       9.432   3.338  23.999  1.00  0.00    +0.000 H 
ATOM     17  C13 UNL A   1      10.596   2.541  22.499  1.00  0.00    +0.000 C 
ATOM     18  C14 UNL A   1      10.925   2.614  21.089  1.00  0.00    +0.000 C 
ATOM     19  C15 UNL A   1      10.368   3.545  20.307  1.00  0.00    +0.000 C 
ATOM     20  N3  UNL A   1       9.451   4.445  20.815  1.00  0.00    +0.000 N 
ATOM     24  C17 UNL A   1       9.045   4.427  22.139  1.00  0.00    +0.000 C 
ATOM     25  O3  UNL A   1       8.230   5.189  22.649  1.00  0.00    +0.000 O 
ATOM     26  C18 UNL A   1       9.688   3.397  23.002  1.00  0.00    +0.000 C 
BRANCH   20   21
ATOM     21  C16 UNL A   1       8.893   5.472  19.973  1.00  0.00    +0.000 C 
ATOM     22  F1  UNL A   1       9.492   6.666  20.192  1.00  0.00    +0.000 F 
ATOM    111  H19 UNL A   1       7.853   5.541  20.216  1.00  0.00    +0.000 H 
ATOM     23  F2  UNL A   1       9.045   5.157  18.663  1.00  0.00    +0.000 F 
ENDBRANCH   20   21
ENDBRANCH   16   17
BRANCH   28   29
ATOM    114  H22 UNL A   1      13.435  -1.588  22.381  1.00  0.00    +0.000 H 
ATOM     29  O4  UNL A   1      13.046  -1.597  23.232  1.00  0.00    +0.000 O 
ENDBRANCH   28   29
ENDBRANCH   11   13
ENDBRANCH   10   11
ENDBRANCH    9   10
ENDBRANCH    8    9
ENDBRANCH    7    8
ENDBRANCH    6    7
ENDBRANCH    5    6
ENDBRANCH    4    5
ENDBRANCH    3    4
ENDBRANCH    2    3
ENDBRANCH   30    2
ENDBRANCH   34   33
BRANCH   38   39
ATOM     39  C29 UNL A   1      12.092   4.522  29.648  1.00  0.00    +0.000 C 
ATOM     40  C30 UNL A   1      12.043   4.578  31.049  1.00  0.00    +0.000 C 
ATOM     41  F3  UNL A   1      11.040   5.221  31.665  1.00  0.00    +0.000 F 
ATOM     42  C31 UNL A   1      13.034   3.982  31.823  1.00  0.00    +0.000 C 
ATOM     43  F4  UNL A   1      12.980   4.069  33.160  1.00  0.00    +0.000 F 
ATOM     44  C32 UNL A   1      14.077   3.299  31.216  1.00  0.00    +0.000 C 
ATOM     45  F5  UNL A   1      15.018   2.706  31.964  1.00  0.00    +0.000 F 
ATOM     46  C33 UNL A   1      14.143   3.229  29.832  1.00  0.00    +0.000 C 
ATOM     47  F6  UNL A   1      15.141   2.555  29.243  1.00  0.00    +0.000 F 
ATOM     48  C34 UNL A   1      13.167   3.846  29.053  1.00  0.00    +0.000 C 
ATOM     49  F7  UNL A   1      13.256   3.759  27.718  1.00  0.00    +0.000 F 
ENDBRANCH   38   39
BRANCH   55   56
ATOM     65  C45 UNL A   1       9.106  11.798  28.397  1.00  0.00    +0.000 C 
ATOM     66  F12 UNL A   1       8.136  11.296  29.175  1.00  0.00    +0.000 F 
ATOM     56  C40 UNL A   1       9.789  10.969  27.494  1.00  0.00    +0.000 C 
ATOM     57  C41 UNL A   1      10.787  11.543  26.694  1.00  0.00    +0.000 C 
ATOM     58  F8  UNL A   1      11.473  10.786  25.826  1.00  0.00    +0.000 F 
ATOM     59  C42 UNL A   1      11.088  12.898  26.794  1.00  0.00    +0.000 C 
ATOM     60  F9  UNL A   1      12.058  13.423  26.034  1.00  0.00    +0.000 F 
ATOM     61  C43 UNL A   1      10.382  13.706  27.674  1.00  0.00    +0.000 C 
ATOM     62  F10 UNL A   1      10.655  15.016  27.748  1.00  0.00    +0.000 F 
ATOM     63  C44 UNL A   1       9.391  13.158  28.474  1.00  0.00    +0.000 C 
ATOM     64  F11 UNL A   1       8.697  13.940  29.312  1.00  0.00    +0.000 F 
ENDBRANCH   55   56
BRANCH   70   71
ATOM     71  C49 UNL A   1       4.603   7.897  23.970  1.00  0.00    +0.000 C 
ATOM     72  C50 UNL A   1       4.792   8.064  22.590  1.00  0.00    +0.000 C 
ATOM     73  F13 UNL A   1       5.982   7.782  22.039  1.00  0.00    +0.000 F 
ATOM     74  C51 UNL A   1       3.771   8.551  21.776  1.00  0.00    +0.000 C 
ATOM     75  F14 UNL A   1       3.992   8.738  20.468  1.00  0.00    +0.000 F 
ATOM     76  C52 UNL A   1       2.533   8.856  22.320  1.00  0.00    +0.000 C 
ATOM     77  F15 UNL A   1       1.549   9.318  21.537  1.00  0.00    +0.000 F 
ATOM     78  C53 UNL A   1       2.318   8.687  23.680  1.00  0.00    +0.000 C 
ATOM     79  F16 UNL A   1       1.119   8.967  24.207  1.00  0.00    +0.000 F 
ATOM     80  C54 UNL A   1       3.346   8.225  24.499  1.00  0.00    +0.000 C 
ATOM     81  F17 UNL A   1       3.112   8.081  25.812  1.00  0.00    +0.000 F 
ENDBRANCH   70   71
TORSDOF 18
ENDMDL
MODEL 7
REMARK VINA RESULT:     -11.5      0.729      7.128
ROOT
ATOM     34  C25 UNL A   1      53.479  20.223  11.728  1.00  0.00    +0.000 C 
ATOM     35  C26 UNL A   1      53.207  20.809  13.087  1.00  0.00    +0.000 C 
ATOM     36  N4  UNL A   1      54.017  20.938  14.109  1.00  0.00    +0.000 N 
ATOM     37  C27 UNL A   1      53.275  21.563  15.103  1.00  0.00    +0.000 C 
ATOM     38  C28 UNL A   1      53.639  21.849  16.374  1.00  0.00    +0.000 C 
ATOM     50  C35 UNL A   1      54.924  21.534  16.938  1.00  0.00    +0.000 C 
ATOM     51  C36 UNL A   1      55.370  21.744  18.231  1.00  0.00    +0.000 C 
ATOM     52  C37 UNL A   1      56.693  21.305  18.311  1.00  0.00    +0.000 C 
ATOM     53  C38 UNL A   1      57.057  20.781  17.082  1.00  0.00    +0.000 C 
ATOM     54  N5  UNL A   1      55.964  20.935  16.245  1.00  0.00    +0.000 N 
ATOM     55  C39 UNL A   1      58.311  20.188  16.699  1.00  0.00    +0.000 C 
ATOM     67  C46 UNL A   1      58.598  19.700  15.469  1.00  0.00    +0.000 C 
ATOM     68  N6  UNL A   1      57.786  19.640  14.345  1.00  0.00    +0.000 N 
ATOM     69  C47 UNL A   1      58.516  19.098  13.401  1.00  0.00    +0.000 C 
ATOM     70  C48 UNL A   1      58.135  18.761  11.984  1.00  0.00    +0.000 C 
ATOM     82  C55 UNL A   1      56.893  19.052  11.548  1.00  0.00    +0.000 C 
ATOM     83  C56 UNL A   1      56.371  18.760  10.215  1.00  0.00    +0.000 C 
ATOM     84  C57 UNL A   1      55.098  19.183  10.139  1.00  0.00    +0.000 C 
ATOM     85  C58 UNL A   1      54.704  19.748  11.430  1.00  0.00    +0.000 C 
ATOM     86  N7  UNL A   1      55.842  19.656  12.195  1.00  0.00    +0.000 N 
ATOM     87  C59 UNL A   1      59.890  18.779  13.815  1.00  0.00    +0.000 C 
ATOM     88  C60 UNL A   1      59.876  19.130  15.095  1.00  0.00    +0.000 C 
ATOM     89  C61 UNL A   1      51.969  21.841  14.549  1.00  0.00    +0.000 C 
ATOM     90  C62 UNL A   1      51.854  21.336  13.329  1.00  0.00    +0.000 C 
ATOM    117  H25 UNL A   1      54.820  22.153  19.002  1.00  0.00    +0.000 H 
ATOM    118  H26 UNL A   1      57.298  21.362  19.146  1.00  0.00    +0.000 H 
ATOM    119  H27 UNL A   1      55.931  20.661  15.300  1.00  0.00    +0.000 H 
ATOM    120  H28 UNL A   1      56.896  18.303   9.454  1.00  0.00    +0.000 H 
ATOM    121  H29 UNL A   1      54.496  19.120   9.304  1.00  0.00    +0.000 H 
ATOM    122  H30 UNL A   1      55.897  19.990  13.118  1.00  0.00    +0.000 H 
ATOM    123  H31 UNL A   1      60.663  18.386  13.258  1.00  0.00    +0.000 H 
ATOM    124  H32 UNL A   1      60.672  19.014  15.740  1.00  0.00    +0.000 H 
ATOM    125  H33 UNL A   1      51.225  22.363  15.038  1.00  0.00    +0.000 H 
ATOM    126  H34 UNL A   1      51.029  21.318  12.709  1.00  0.00    +0.000 H 
ENDROOT
BRANCH   34   33
ATOM     33  C24 UNL A   1      52.396  20.171  10.711  1.00  0.00    +0.000 C 
ATOM    127  H35 UNL A   1      52.753  22.111   9.949  1.00  0.00    +0.000 H 
ATOM    115  H23 UNL A   1      49.967  18.153   9.557  1.00  0.00    +0.000 H 
ATOM    116  H24 UNL A   1      51.752  18.215  11.196  1.00  0.00    +0.000 H 
ATOM     91  C63 UNL A   1      52.138  21.285   9.898  1.00  0.00    +0.000 C 
ATOM     92  C64 UNL A   1      51.054  21.279   9.020  1.00  0.00    +0.000 C 
ATOM     32  C23 UNL A   1      51.582  19.034  10.591  1.00  0.00    +0.000 C 
ATOM     30  C21 UNL A   1      50.285  20.123   8.863  1.00  0.00    +0.000 C 
ATOM     31  C22 UNL A   1      50.543  19.003   9.659  1.00  0.00    +0.000 C 
ATOM    128  H36 UNL A   1      50.821  22.130   8.486  1.00  0.00    +0.000 H 
BRANCH   30    2
ATOM      1  O1  UNL A   1      48.306  20.962   7.925  1.00  0.00    +0.000 O 
ATOM      2  C1  UNL A   1      49.146  20.066   7.916  1.00  0.00    +0.000 C 
BRANCH    2    3
ATOM      3  N1  UNL A   1      49.013  19.020   7.041  1.00  0.00    +0.000 N 
ATOM     93  H1  UNL A   1      49.133  18.126   7.437  1.00  0.00    +0.000 H 
BRANCH    3    4
ATOM      4  C2  UNL A   1      48.722  19.029   5.619  1.00  0.00    +0.000 C 
ATOM     94  H2  UNL A   1      49.566  19.429   5.099  1.00  0.00    +0.000 H 
ATOM     95  H3  UNL A   1      47.848  19.630   5.471  1.00  0.00    +0.000 H 
BRANCH    4    5
ATOM     97  H5  UNL A   1      47.769  17.779   4.241  1.00  0.00    +0.000 H 
ATOM      5  C3  UNL A   1      48.424  17.637   5.075  1.00  0.00    +0.000 C 
ATOM     96  H4  UNL A   1      49.356  17.178   4.814  1.00  0.00    +0.000 H 
BRANCH    5    6
ATOM     98  H6  UNL A   1      47.248  17.296   6.805  1.00  0.00    +0.000 H 
ATOM     99  H7  UNL A   1      48.426  16.009   6.390  1.00  0.00    +0.000 H 
ATOM      6  C4  UNL A   1      47.689  16.699   6.035  1.00  0.00    +0.000 C 
BRANCH    6    7
ATOM    100  H8  UNL A   1      45.650  16.157   5.831  1.00  0.00    +0.000 H 
ATOM    101  H9  UNL A   1      46.839  14.829   5.631  1.00  0.00    +0.000 H 
ATOM      7  C5  UNL A   1      46.583  15.844   5.411  1.00  0.00    +0.000 C 
BRANCH    7    8
ATOM    102  H10 UNL A   1      46.433  14.927   3.503  1.00  0.00    +0.000 H 
ATOM    103  H11 UNL A   1      47.313  16.486   3.553  1.00  0.00    +0.000 H 
ATOM      8  C6  UNL A   1      46.464  15.926   3.887  1.00  0.00    +0.000 C 
BRANCH    8    9
ATOM      9  C7  UNL A   1      45.236  16.669   3.370  1.00  0.00    +0.000 C 
ATOM    105  H13 UNL A   1      44.890  16.160   2.494  1.00  0.00    +0.000 H 
ATOM    104  H12 UNL A   1      44.490  16.676   4.136  1.00  0.00    +0.000 H 
BRANCH    9   10
ATOM     10  N2  UNL A   1      45.540  18.037   2.998  1.00  0.00    +0.000 N 
ATOM    106  H14 UNL A   1      46.314  18.159   2.401  1.00  0.00    +0.000 H 
BRANCH   10   11
ATOM     11  C8  UNL A   1      44.887  19.184   3.375  1.00  0.00    +0.000 C 
ATOM     12  O2  UNL A   1      45.374  19.931   4.221  1.00  0.00    +0.000 O 
BRANCH   11   13
ATOM    107  H15 UNL A   1      42.510  18.127   3.755  1.00  0.00    +0.000 H 
ATOM    108  H16 UNL A   1      40.384  18.738   2.752  1.00  0.00    +0.000 H 
ATOM     13  C9  UNL A   1      43.633  19.572   2.699  1.00  0.00    +0.000 C 
ATOM     14  C10 UNL A   1      42.467  18.889   3.060  1.00  0.00    +0.000 C 
ATOM     15  C11 UNL A   1      41.245  19.239   2.481  1.00  0.00    +0.000 C 
ATOM     16  C12 UNL A   1      41.185  20.268   1.531  1.00  0.00    +0.000 C 
ATOM    113  H21 UNL A   1      42.331  21.672   0.438  1.00  0.00    +0.000 H 
ATOM     27  C19 UNL A   1      42.366  20.924   1.148  1.00  0.00    +0.000 C 
ATOM     28  C20 UNL A   1      43.586  20.569   1.721  1.00  0.00    +0.000 C 
BRANCH   16   17
ATOM    109  H17 UNL A   1      40.664  21.205  -1.029  1.00  0.00    +0.000 H 
ATOM    110  H18 UNL A   1      38.630  22.054  -1.866  1.00  0.00    +0.000 H 
ATOM    112  H20 UNL A   1      38.842  20.263   2.633  1.00  0.00    +0.000 H 
ATOM     17  C13 UNL A   1      39.908  20.685   0.922  1.00  0.00    +0.000 C 
ATOM     18  C14 UNL A   1      39.823  21.202  -0.430  1.00  0.00    +0.000 C 
ATOM     19  C15 UNL A   1      38.667  21.674  -0.907  1.00  0.00    +0.000 C 
ATOM     20  N3  UNL A   1      37.521  21.663  -0.135  1.00  0.00    +0.000 N 
ATOM     24  C17 UNL A   1      37.496  21.153   1.153  1.00  0.00    +0.000 C 
ATOM     25  O3  UNL A   1      36.513  21.105   1.885  1.00  0.00    +0.000 O 
ATOM     26  C18 UNL A   1      38.795  20.648   1.677  1.00  0.00    +0.000 C 
BRANCH   20   21
ATOM     21  C16 UNL A   1      36.293  22.217  -0.643  1.00  0.00    +0.000 C 
ATOM     22  F1  UNL A   1      36.515  23.370  -1.318  1.00  0.00    +0.000 F 
ATOM    111  H19 UNL A   1      35.666  22.410   0.202  1.00  0.00    +0.000 H 
ATOM     23  F2  UNL A   1      35.683  21.346  -1.485  1.00  0.00    +0.000 F 
ENDBRANCH   20   21
ENDBRANCH   16   17
BRANCH   28   29
ATOM    114  H22 UNL A   1      45.481  21.210   1.882  1.00  0.00    +0.000 H 
ATOM     29  O4  UNL A   1      44.727  21.213   1.328  1.00  0.00    +0.000 O 
ENDBRANCH   28   29
ENDBRANCH   11   13
ENDBRANCH   10   11
ENDBRANCH    9   10
ENDBRANCH    8    9
ENDBRANCH    7    8
ENDBRANCH    6    7
ENDBRANCH    5    6
ENDBRANCH    4    5
ENDBRANCH    3    4
ENDBRANCH    2    3
ENDBRANCH   30    2
ENDBRANCH   34   33
BRANCH   38   39
ATOM     39  C29 UNL A   1      52.630  22.510  17.265  1.00  0.00    +0.000 C 
ATOM     40  C30 UNL A   1      52.430  23.898  17.232  1.00  0.00    +0.000 C 
ATOM     41  F3  UNL A   1      53.210  24.675  16.467  1.00  0.00    +0.000 F 
ATOM     42  C31 UNL A   1      51.432  24.495  17.998  1.00  0.00    +0.000 C 
ATOM     43  F4  UNL A   1      51.275  25.825  17.971  1.00  0.00    +0.000 F 
ATOM     44  C32 UNL A   1      50.601  23.716  18.790  1.00  0.00    +0.000 C 
ATOM     45  F5  UNL A   1      49.627  24.290  19.509  1.00  0.00    +0.000 F 
ATOM     46  C33 UNL A   1      50.780  22.341  18.835  1.00  0.00    +0.000 C 
ATOM     47  F6  UNL A   1      49.968  21.585  19.587  1.00  0.00    +0.000 F 
ATOM     48  C34 UNL A   1      51.794  21.743  18.090  1.00  0.00    +0.000 C 
ATOM     49  F7  UNL A   1      51.941  20.412  18.152  1.00  0.00    +0.000 F 
ENDBRANCH   38   39
BRANCH   55   56
ATOM     65  C45 UNL A   1      59.611  18.895  18.426  1.00  0.00    +0.000 C 
ATOM     66  F12 UNL A   1      58.955  17.782  18.066  1.00  0.00    +0.000 F 
ATOM     56  C40 UNL A   1      59.374  20.105  17.755  1.00  0.00    +0.000 C 
ATOM     57  C41 UNL A   1      60.076  21.242  18.176  1.00  0.00    +0.000 C 
ATOM     58  F8  UNL A   1      59.889  22.417  17.556  1.00  0.00    +0.000 F 
ATOM     59  C42 UNL A   1      60.981  21.172  19.231  1.00  0.00    +0.000 C 
ATOM     60  F9  UNL A   1      61.656  22.267  19.605  1.00  0.00    +0.000 F 
ATOM     61  C43 UNL A   1      61.182  19.972  19.898  1.00  0.00    +0.000 C 
ATOM     62  F10 UNL A   1      62.034  19.913  20.931  1.00  0.00    +0.000 F 
ATOM     63  C44 UNL A   1      60.497  18.834  19.497  1.00  0.00    +0.000 C 
ATOM     64  F11 UNL A   1      60.677  17.679  20.152  1.00  0.00    +0.000 F 
ENDBRANCH   55   56
BRANCH   70   71
ATOM     71  C49 UNL A   1      59.096  18.080  11.079  1.00  0.00    +0.000 C 
ATOM     72  C50 UNL A   1      59.919  18.818  10.215  1.00  0.00    +0.000 C 
ATOM     73  F13 UNL A   1      59.825  20.156  10.184  1.00  0.00    +0.000 F 
ATOM     74  C51 UNL A   1      60.816  18.186   9.356  1.00  0.00    +0.000 C 
ATOM     75  F14 UNL A   1      61.560  18.914   8.515  1.00  0.00    +0.000 F 
ATOM     76  C52 UNL A   1      60.928  16.804   9.363  1.00  0.00    +0.000 C 
ATOM     77  F15 UNL A   1      61.796  16.196   8.543  1.00  0.00    +0.000 F 
ATOM     78  C53 UNL A   1      60.135  16.052  10.218  1.00  0.00    +0.000 C 
ATOM     79  F16 UNL A   1      60.251  14.718  10.237  1.00  0.00    +0.000 F 
ATOM     80  C54 UNL A   1      59.219  16.683  11.057  1.00  0.00    +0.000 C 
ATOM     81  F17 UNL A   1      58.458  15.930  11.865  1.00  0.00    +0.000 F 
ENDBRANCH   70   71
TORSDOF 18
ENDMDL
MODEL 8
REMARK VINA RESULT:     -11.5     26.418     34.968
ROOT
ATOM     34  C25 UNL A   1      22.284  19.663   4.855  1.00  0.00    +0.000 C 
ATOM     35  C26 UNL A   1      21.987  20.704   3.809  1.00  0.00    +0.000 C 
ATOM     36  N4  UNL A   1      20.834  21.213   3.452  1.00  0.00    +0.000 N 
ATOM     37  C27 UNL A   1      21.121  22.147   2.467  1.00  0.00    +0.000 C 
ATOM     38  C28 UNL A   1      20.261  22.886   1.728  1.00  0.00    +0.000 C 
ATOM     50  C35 UNL A   1      18.830  22.822   1.848  1.00  0.00    +0.000 C 
ATOM     51  C36 UNL A   1      17.874  23.499   1.111  1.00  0.00    +0.000 C 
ATOM     52  C37 UNL A   1      16.615  23.141   1.597  1.00  0.00    +0.000 C 
ATOM     53  C38 UNL A   1      16.784  22.207   2.606  1.00  0.00    +0.000 C 
ATOM     54  N5  UNL A   1      18.149  22.026   2.755  1.00  0.00    +0.000 N 
ATOM     55  C39 UNL A   1      15.773  21.534   3.379  1.00  0.00    +0.000 C 
ATOM     67  C46 UNL A   1      16.016  20.633   4.361  1.00  0.00    +0.000 C 
ATOM     68  N6  UNL A   1      17.234  20.151   4.818  1.00  0.00    +0.000 N 
ATOM     69  C47 UNL A   1      16.950  19.312   5.783  1.00  0.00    +0.000 C 
ATOM     70  C48 UNL A   1      17.884  18.471   6.613  1.00  0.00    +0.000 C 
ATOM     82  C55 UNL A   1      19.213  18.562   6.408  1.00  0.00    +0.000 C 
ATOM     83  C56 UNL A   1      20.236  17.792   7.112  1.00  0.00    +0.000 C 
ATOM     84  C57 UNL A   1      21.446  18.138   6.643  1.00  0.00    +0.000 C 
ATOM     85  C58 UNL A   1      21.282  19.132   5.581  1.00  0.00    +0.000 C 
ATOM     86  N7  UNL A   1      19.926  19.344   5.532  1.00  0.00    +0.000 N 
ATOM     87  C59 UNL A   1      15.513  19.188   6.066  1.00  0.00    +0.000 C 
ATOM     88  C60 UNL A   1      14.986  19.985   5.146  1.00  0.00    +0.000 C 
ATOM     89  C61 UNL A   1      22.558  22.182   2.317  1.00  0.00    +0.000 C 
ATOM     90  C62 UNL A   1      23.135  21.262   3.077  1.00  0.00    +0.000 C 
ATOM    117  H25 UNL A   1      18.059  24.154   0.336  1.00  0.00    +0.000 H 
ATOM    118  H26 UNL A   1      15.710  23.511   1.262  1.00  0.00    +0.000 H 
ATOM    119  H27 UNL A   1      18.572  21.423   3.408  1.00  0.00    +0.000 H 
ATOM    120  H28 UNL A   1      20.056  17.095   7.850  1.00  0.00    +0.000 H 
ATOM    121  H29 UNL A   1      22.346  17.762   6.978  1.00  0.00    +0.000 H 
ATOM    122  H30 UNL A   1      19.505  19.996   4.926  1.00  0.00    +0.000 H 
ATOM    123  H31 UNL A   1      15.038  18.629   6.791  1.00  0.00    +0.000 H 
ATOM    124  H32 UNL A   1      13.974  20.126   5.007  1.00  0.00    +0.000 H 
ATOM    125  H33 UNL A   1      23.067  22.836   1.702  1.00  0.00    +0.000 H 
ATOM    126  H34 UNL A   1      24.133  21.005   3.139  1.00  0.00    +0.000 H 
ENDROOT
BRANCH   34   33
ATOM     33  C24 UNL A   1      23.685  19.225   5.089  1.00  0.00    +0.000 C 
ATOM    127  H35 UNL A   1      23.728  17.849   3.484  1.00  0.00    +0.000 H 
ATOM    115  H23 UNL A   1      26.292  19.743   7.149  1.00  0.00    +0.000 H 
ATOM    116  H24 UNL A   1      24.018  20.488   6.754  1.00  0.00    +0.000 H 
ATOM     91  C63 UNL A   1      24.254  18.224   4.289  1.00  0.00    +0.000 C 
ATOM     92  C64 UNL A   1      25.528  17.734   4.575  1.00  0.00    +0.000 C 
ATOM     32  C23 UNL A   1      24.434  19.763   6.148  1.00  0.00    +0.000 C 
ATOM     30  C21 UNL A   1      26.291  18.314   5.592  1.00  0.00    +0.000 C 
ATOM     31  C22 UNL A   1      25.737  19.323   6.386  1.00  0.00    +0.000 C 
ATOM    128  H36 UNL A   1      25.908  16.941   4.034  1.00  0.00    +0.000 H 
BRANCH   30    2
ATOM      1  O1  UNL A   1      28.045  16.763   5.467  1.00  0.00    +0.000 O 
ATOM      2  C1  UNL A   1      27.661  17.845   5.905  1.00  0.00    +0.000 C 
BRANCH    2    3
ATOM      3  N1  UNL A   1      28.499  18.597   6.687  1.00  0.00    +0.000 N 
ATOM     93  H1  UNL A   1      28.700  19.496   6.339  1.00  0.00    +0.000 H 
BRANCH    3    4
ATOM      4  C2  UNL A   1      29.137  18.268   7.948  1.00  0.00    +0.000 C 
ATOM     94  H2  UNL A   1      29.690  19.119   8.286  1.00  0.00    +0.000 H 
ATOM     95  H3  UNL A   1      29.775  17.425   7.780  1.00  0.00    +0.000 H 
BRANCH    4    5
ATOM     97  H5  UNL A   1      27.310  17.423   8.514  1.00  0.00    +0.000 H 
ATOM      5  C3  UNL A   1      28.131  17.878   9.027  1.00  0.00    +0.000 C 
ATOM     96  H4  UNL A   1      28.624  17.223   9.716  1.00  0.00    +0.000 H 
BRANCH    5    6
ATOM     98  H6  UNL A   1      26.484  19.057   9.652  1.00  0.00    +0.000 H 
ATOM     99  H7  UNL A   1      28.046  19.921   9.478  1.00  0.00    +0.000 H 
ATOM      6  C4  UNL A   1      27.539  19.043   9.823  1.00  0.00    +0.000 C 
BRANCH    6    7
ATOM    100  H8  UNL A   1      28.735  19.413  11.534  1.00  0.00    +0.000 H 
ATOM    101  H9  UNL A   1      27.674  17.969  11.615  1.00  0.00    +0.000 H 
ATOM      7  C5  UNL A   1      27.769  18.997  11.336  1.00  0.00    +0.000 C 
BRANCH    7    8
ATOM    102  H10 UNL A   1      26.031  20.200  11.523  1.00  0.00    +0.000 H 
ATOM    103  H11 UNL A   1      27.306  20.473  12.752  1.00  0.00    +0.000 H 
ATOM      8  C6  UNL A   1      26.747  19.758  12.185  1.00  0.00    +0.000 C 
BRANCH    8    9
ATOM      9  C7  UNL A   1      25.989  18.911  13.202  1.00  0.00    +0.000 C 
ATOM    105  H13 UNL A   1      25.872  17.929  12.790  1.00  0.00    +0.000 H 
ATOM    104  H12 UNL A   1      26.548  18.885  14.114  1.00  0.00    +0.000 H 
BRANCH    9   10
ATOM     10  N2  UNL A   1      24.666  19.438  13.477  1.00  0.00    +0.000 N 
ATOM    106  H14 UNL A   1      24.575  19.955  14.311  1.00  0.00    +0.000 H 
BRANCH   10   11
ATOM     11  C8  UNL A   1      23.525  19.304  12.726  1.00  0.00    +0.000 C 
ATOM     12  O2  UNL A   1      22.558  20.035  12.925  1.00  0.00    +0.000 O 
BRANCH   11   13
ATOM    107  H15 UNL A   1      24.082  19.796  10.204  1.00  0.00    +0.000 H 
ATOM    108  H16 UNL A   1      24.122  18.266   8.318  1.00  0.00    +0.000 H 
ATOM     13  C9  UNL A   1      23.489  18.336  11.612  1.00  0.00    +0.000 C 
ATOM     14  C10 UNL A   1      23.839  18.802  10.340  1.00  0.00    +0.000 C 
ATOM     15  C11 UNL A   1      23.860  17.922   9.255  1.00  0.00    +0.000 C 
ATOM     16  C12 UNL A   1      23.522  16.574   9.436  1.00  0.00    +0.000 C 
ATOM    113  H21 UNL A   1      22.873  15.134  10.845  1.00  0.00    +0.000 H 
ATOM     27  C19 UNL A   1      23.138  16.123  10.709  1.00  0.00    +0.000 C 
ATOM     28  C20 UNL A   1      23.110  17.003  11.789  1.00  0.00    +0.000 C 
BRANCH   16   17
ATOM    109  H17 UNL A   1      25.538  16.080   7.594  1.00  0.00    +0.000 H 
ATOM    110  H18 UNL A   1      25.451  14.671   5.705  1.00  0.00    +0.000 H 
ATOM    112  H20 UNL A   1      21.684  14.885   8.748  1.00  0.00    +0.000 H 
ATOM     17  C13 UNL A   1      23.563  15.611   8.320  1.00  0.00    +0.000 C 
ATOM     18  C14 UNL A   1      24.692  15.517   7.414  1.00  0.00    +0.000 C 
ATOM     19  C15 UNL A   1      24.645  14.711   6.348  1.00  0.00    +0.000 C 
ATOM     20  N3  UNL A   1      23.533  13.932   6.095  1.00  0.00    +0.000 N 
ATOM     24  C17 UNL A   1      22.424  13.923   6.925  1.00  0.00    +0.000 C 
ATOM     25  O3  UNL A   1      21.412  13.249   6.762  1.00  0.00    +0.000 O 
ATOM     26  C18 UNL A   1      22.483  14.840   8.097  1.00  0.00    +0.000 C 
BRANCH   20   21
ATOM     21  C16 UNL A   1      23.475  13.102   4.919  1.00  0.00    +0.000 C 
ATOM     22  F1  UNL A   1      24.458  13.420   4.043  1.00  0.00    +0.000 F 
ATOM    111  H19 UNL A   1      22.521  13.270   4.466  1.00  0.00    +0.000 H 
ATOM     23  F2  UNL A   1      23.610  11.792   5.246  1.00  0.00    +0.000 F 
ENDBRANCH   20   21
ENDBRANCH   16   17
BRANCH   28   29
ATOM    114  H22 UNL A   1      21.938  16.868  13.413  1.00  0.00    +0.000 H 
ATOM     29  O4  UNL A   1      22.724  16.546  13.019  1.00  0.00    +0.000 O 
ENDBRANCH   28   29
ENDBRANCH   11   13
ENDBRANCH   10   11
ENDBRANCH    9   10
ENDBRANCH    8    9
ENDBRANCH    7    8
ENDBRANCH    6    7
ENDBRANCH    5    6
ENDBRANCH    4    5
ENDBRANCH    3    4
ENDBRANCH    2    3
ENDBRANCH   30    2
ENDBRANCH   34   33
BRANCH   38   39
ATOM     39  C29 UNL A   1      20.833  23.814   0.697  1.00  0.00    +0.000 C 
ATOM     40  C30 UNL A   1      20.966  23.419  -0.642  1.00  0.00    +0.000 C 
ATOM     41  F3  UNL A   1      20.673  22.163  -1.009  1.00  0.00    +0.000 F 
ATOM     42  C31 UNL A   1      21.416  24.313  -1.610  1.00  0.00    +0.000 C 
ATOM     43  F4  UNL A   1      21.559  23.908  -2.879  1.00  0.00    +0.000 F 
ATOM     44  C32 UNL A   1      21.715  25.623  -1.264  1.00  0.00    +0.000 C 
ATOM     45  F5  UNL A   1      22.125  26.488  -2.201  1.00  0.00    +0.000 F 
ATOM     46  C33 UNL A   1      21.587  26.035   0.055  1.00  0.00    +0.000 C 
ATOM     47  F6  UNL A   1      21.860  27.304   0.389  1.00  0.00    +0.000 F 
ATOM     48  C34 UNL A   1      21.163  25.136   1.030  1.00  0.00    +0.000 C 
ATOM     49  F7  UNL A   1      21.046  25.564   2.296  1.00  0.00    +0.000 F 
ENDBRANCH   38   39
BRANCH   55   56
ATOM     65  C45 UNL A   1      13.646  22.803   3.835  1.00  0.00    +0.000 C 
ATOM     66  F12 UNL A   1      14.276  23.482   4.804  1.00  0.00    +0.000 F 
ATOM     56  C40 UNL A   1      14.344  21.862   3.061  1.00  0.00    +0.000 C 
ATOM     57  C41 UNL A   1      13.639  21.170   2.068  1.00  0.00    +0.000 C 
ATOM     58  F8  UNL A   1      14.268  20.270   1.297  1.00  0.00    +0.000 F 
ATOM     59  C42 UNL A   1      12.284  21.409   1.858  1.00  0.00    +0.000 C 
ATOM     60  F9  UNL A   1      11.633  20.749   0.890  1.00  0.00    +0.000 F 
ATOM     61  C43 UNL A   1      11.606  22.323   2.650  1.00  0.00    +0.000 C 
ATOM     62  F10 UNL A   1      10.296  22.531   2.464  1.00  0.00    +0.000 F 
ATOM     63  C44 UNL A   1      12.285  23.019   3.639  1.00  0.00    +0.000 C 
ATOM     64  F11 UNL A   1      11.628  23.890   4.417  1.00  0.00    +0.000 F 
ENDBRANCH   55   56
BRANCH   70   71
ATOM     71  C49 UNL A   1      17.355  17.519   7.625  1.00  0.00    +0.000 C 
ATOM     72  C50 UNL A   1      16.932  17.969   8.885  1.00  0.00    +0.000 C 
ATOM     73  F13 UNL A   1      17.026  19.271   9.195  1.00  0.00    +0.000 F 
ATOM     74  C51 UNL A   1      16.445  17.081   9.842  1.00  0.00    +0.000 C 
ATOM     75  F14 UNL A   1      16.085  17.534  11.050  1.00  0.00    +0.000 F 
ATOM     76  C52 UNL A   1      16.344  15.730   9.549  1.00  0.00    +0.000 C 
ATOM     77  F15 UNL A   1      15.868  14.877  10.466  1.00  0.00    +0.000 F 
ATOM     78  C53 UNL A   1      16.743  15.262   8.306  1.00  0.00    +0.000 C 
ATOM     79  F16 UNL A   1      16.634  13.959   8.014  1.00  0.00    +0.000 F 
ATOM     80  C54 UNL A   1      17.256  16.146   7.358  1.00  0.00    +0.000 C 
ATOM     81  F17 UNL A   1      17.644  15.664   6.168  1.00  0.00    +0.000 F 
ENDBRANCH   70   71
TORSDOF 18
ENDMDL
MODEL 9
REMARK VINA RESULT:     -11.3     24.534     36.368
ROOT
ATOM     34  C25 UNL A   1      19.886  18.724   5.658  1.00  0.00    +0.000 C 
ATOM     35  C26 UNL A   1      18.808  18.464   6.675  1.00  0.00    +0.000 C 
ATOM     36  N4  UNL A   1      17.567  18.881   6.690  1.00  0.00    +0.000 N 
ATOM     37  C27 UNL A   1      16.998  18.336   7.833  1.00  0.00    +0.000 C 
ATOM     38  C28 UNL A   1      15.756  18.532   8.334  1.00  0.00    +0.000 C 
ATOM     50  C35 UNL A   1      14.767  19.384   7.733  1.00  0.00    +0.000 C 
ATOM     51  C36 UNL A   1      13.496  19.682   8.191  1.00  0.00    +0.000 C 
ATOM     52  C37 UNL A   1      12.886  20.532   7.265  1.00  0.00    +0.000 C 
ATOM     53  C38 UNL A   1      13.794  20.800   6.254  1.00  0.00    +0.000 C 
ATOM     54  N5  UNL A   1      14.942  20.083   6.549  1.00  0.00    +0.000 N 
ATOM     55  C39 UNL A   1      13.623  21.645   5.101  1.00  0.00    +0.000 C 
ATOM     67  C46 UNL A   1      14.558  21.855   4.145  1.00  0.00    +0.000 C 
ATOM     68  N6  UNL A   1      15.847  21.348   4.061  1.00  0.00    +0.000 N 
ATOM     69  C47 UNL A   1      16.353  21.827   2.952  1.00  0.00    +0.000 C 
ATOM     70  C48 UNL A   1      17.730  21.633   2.376  1.00  0.00    +0.000 C 
ATOM     82  C55 UNL A   1      18.613  20.850   3.027  1.00  0.00    +0.000 C 
ATOM     83  C56 UNL A   1      19.989  20.592   2.609  1.00  0.00    +0.000 C 
ATOM     84  C57 UNL A   1      20.573  19.774   3.500  1.00  0.00    +0.000 C 
ATOM     85  C58 UNL A   1      19.621  19.475   4.571  1.00  0.00    +0.000 C 
ATOM     86  N7  UNL A   1      18.476  20.131   4.190  1.00  0.00    +0.000 N 
ATOM     87  C59 UNL A   1      15.425  22.673   2.188  1.00  0.00    +0.000 C 
ATOM     88  C60 UNL A   1      14.359  22.689   2.978  1.00  0.00    +0.000 C 
ATOM     89  C61 UNL A   1      18.006  17.512   8.460  1.00  0.00    +0.000 C 
ATOM     90  C62 UNL A   1      19.163  17.609   7.820  1.00  0.00    +0.000 C 
ATOM    117  H25 UNL A   1      13.071  19.336   9.065  1.00  0.00    +0.000 H 
ATOM    118  H26 UNL A   1      11.923  20.898   7.325  1.00  0.00    +0.000 H 
ATOM    119  H27 UNL A   1      15.759  20.071   5.999  1.00  0.00    +0.000 H 
ATOM    120  H28 UNL A   1      20.439  20.977   1.765  1.00  0.00    +0.000 H 
ATOM    121  H29 UNL A   1      21.538  19.414   3.439  1.00  0.00    +0.000 H 
ATOM    122  H30 UNL A   1      17.637  20.091   4.703  1.00  0.00    +0.000 H 
ATOM    123  H31 UNL A   1      15.564  23.134   1.275  1.00  0.00    +0.000 H 
ATOM    124  H32 UNL A   1      13.499  23.225   2.786  1.00  0.00    +0.000 H 
ATOM    125  H33 UNL A   1      17.847  16.926   9.295  1.00  0.00    +0.000 H 
ATOM    126  H34 UNL A   1      20.075  17.193   8.062  1.00  0.00    +0.000 H 
ENDROOT
BRANCH   34   33
ATOM     33  C24 UNL A   1      21.243  18.149   5.850  1.00  0.00    +0.000 C 
ATOM    127  H35 UNL A   1      20.777  16.267   5.007  1.00  0.00    +0.000 H 
ATOM    115  H23 UNL A   1      24.277  18.922   7.077  1.00  0.00    +0.000 H 
ATOM    116  H24 UNL A   1      22.075  19.880   6.738  1.00  0.00    +0.000 H 
ATOM     91  C63 UNL A   1      21.505  16.821   5.484  1.00  0.00    +0.000 C 
ATOM     92  C64 UNL A   1      22.744  16.245   5.763  1.00  0.00    +0.000 C 
ATOM     32  C23 UNL A   1      22.261  18.906   6.450  1.00  0.00    +0.000 C 
ATOM     30  C21 UNL A   1      23.772  17.021   6.306  1.00  0.00    +0.000 C 
ATOM     31  C22 UNL A   1      23.525  18.351   6.660  1.00  0.00    +0.000 C 
ATOM    128  H36 UNL A   1      22.902  15.244   5.567  1.00  0.00    +0.000 H 
BRANCH   30    2
ATOM      1  O1  UNL A   1      25.923  16.338   5.669  1.00  0.00    +0.000 O 
ATOM      2  C1  UNL A   1      25.113  16.456   6.586  1.00  0.00    +0.000 C 
BRANCH    2    3
ATOM      3  N1  UNL A   1      25.455  16.053   7.850  1.00  0.00    +0.000 N 
ATOM     93  H1  UNL A   1      26.422  15.974   8.016  1.00  0.00    +0.000 H 
BRANCH    3    4
ATOM      4  C2  UNL A   1      24.607  15.723   8.981  1.00  0.00    +0.000 C 
ATOM     94  H2  UNL A   1      25.070  14.936   9.539  1.00  0.00    +0.000 H 
ATOM     95  H3  UNL A   1      23.654  15.425   8.596  1.00  0.00    +0.000 H 
BRANCH    4    5
ATOM     97  H5  UNL A   1      24.754  16.616  10.866  1.00  0.00    +0.000 H 
ATOM      5  C3  UNL A   1      24.381  16.913   9.908  1.00  0.00    +0.000 C 
ATOM     96  H4  UNL A   1      24.892  17.757   9.491  1.00  0.00    +0.000 H 
BRANCH    5    6
ATOM     98  H6  UNL A   1      22.419  16.475  10.578  1.00  0.00    +0.000 H 
ATOM     99  H7  UNL A   1      22.539  17.567   9.161  1.00  0.00    +0.000 H 
ATOM      6  C4  UNL A   1      22.918  17.306  10.127  1.00  0.00    +0.000 C 
BRANCH    6    7
ATOM    100  H8  UNL A   1      21.704  18.903  10.810  1.00  0.00    +0.000 H 
ATOM    101  H9  UNL A   1      23.468  19.222  10.767  1.00  0.00    +0.000 H 
ATOM      7  C5  UNL A   1      22.687  18.533  11.012  1.00  0.00    +0.000 C 
BRANCH    7    8
ATOM    102  H10 UNL A   1      22.833  17.235  12.685  1.00  0.00    +0.000 H 
ATOM    103  H11 UNL A   1      21.945  18.765  12.960  1.00  0.00    +0.000 H 
ATOM      8  C6  UNL A   1      22.798  18.292  12.520  1.00  0.00    +0.000 C 
BRANCH    8    9
ATOM      9  C7  UNL A   1      24.020  18.914  13.188  1.00  0.00    +0.000 C 
ATOM    105  H13 UNL A   1      23.841  18.936  14.244  1.00  0.00    +0.000 H 
ATOM    104  H12 UNL A   1      24.881  18.325  12.951  1.00  0.00    +0.000 H 
BRANCH    9   10
ATOM     10  N2  UNL A   1      24.250  20.277  12.748  1.00  0.00    +0.000 N 
ATOM    106  H14 UNL A   1      23.481  20.888  12.822  1.00  0.00    +0.000 H 
BRANCH   10   11
ATOM     11  C8  UNL A   1      25.403  20.822  12.240  1.00  0.00    +0.000 C 
ATOM     12  O2  UNL A   1      25.928  21.790  12.784  1.00  0.00    +0.000 O 
BRANCH   11   13
ATOM    107  H15 UNL A   1      24.797  21.161   9.705  1.00  0.00    +0.000 H 
ATOM    108  H16 UNL A   1      25.869  20.227   7.736  1.00  0.00    +0.000 H 
ATOM     13  C9  UNL A   1      26.068  20.188  11.085  1.00  0.00    +0.000 C 
ATOM     14  C10 UNL A   1      25.598  20.518   9.809  1.00  0.00    +0.000 C 
ATOM     15  C11 UNL A   1      26.213  19.979   8.677  1.00  0.00    +0.000 C 
ATOM     16  C12 UNL A   1      27.296  19.099   8.816  1.00  0.00    +0.000 C 
ATOM    113  H21 UNL A   1      28.525  18.086  10.210  1.00  0.00    +0.000 H 
ATOM     27  C19 UNL A   1      27.738  18.745  10.101  1.00  0.00    +0.000 C 
ATOM     28  C20 UNL A   1      27.119  19.279  11.230  1.00  0.00    +0.000 C 
BRANCH   16   17
ATOM    109  H17 UNL A   1      29.034  16.942   8.652  1.00  0.00    +0.000 H 
ATOM    110  H18 UNL A   1      30.272  16.228   6.776  1.00  0.00    +0.000 H 
ATOM    112  H20 UNL A   1      27.139  19.903   6.360  1.00  0.00    +0.000 H 
ATOM     17  C13 UNL A   1      27.989  18.535   7.643  1.00  0.00    +0.000 C 
ATOM     18  C14 UNL A   1      28.912  17.421   7.746  1.00  0.00    +0.000 C 
ATOM     19  C15 UNL A   1      29.607  17.011   6.679  1.00  0.00    +0.000 C 
ATOM     20  N3  UNL A   1      29.448  17.621   5.450  1.00  0.00    +0.000 N 
ATOM     24  C17 UNL A   1      28.561  18.666   5.245  1.00  0.00    +0.000 C 
ATOM     25  O3  UNL A   1      28.366  19.242   4.180  1.00  0.00    +0.000 O 
ATOM     26  C18 UNL A   1      27.809  19.123   6.447  1.00  0.00    +0.000 C 
BRANCH   20   21
ATOM     21  C16 UNL A   1      30.235  17.201   4.319  1.00  0.00    +0.000 C 
ATOM     22  F1  UNL A   1      31.560  17.312   4.573  1.00  0.00    +0.000 F 
ATOM    111  H19 UNL A   1      29.970  17.839   3.502  1.00  0.00    +0.000 H 
ATOM     23  F2  UNL A   1      29.973  15.908   4.004  1.00  0.00    +0.000 F 
ENDBRANCH   20   21
ENDBRANCH   16   17
BRANCH   28   29
ATOM    114  H22 UNL A   1      28.167  19.458  12.932  1.00  0.00    +0.000 H 
ATOM     29  O4  UNL A   1      27.558  18.915  12.473  1.00  0.00    +0.000 O 
ENDBRANCH   28   29
ENDBRANCH   11   13
ENDBRANCH   10   11
ENDBRANCH    9   10
ENDBRANCH    8    9
ENDBRANCH    7    8
ENDBRANCH    6    7
ENDBRANCH    5    6
ENDBRANCH    4    5
ENDBRANCH    3    4
ENDBRANCH    2    3
ENDBRANCH   30    2
ENDBRANCH   34   33
BRANCH   38   39
ATOM     39  C29 UNL A   1      15.394  17.839   9.614  1.00  0.00    +0.000 C 
ATOM     40  C30 UNL A   1      15.464  18.505  10.846  1.00  0.00    +0.000 C 
ATOM     41  F3  UNL A   1      15.952  19.752  10.913  1.00  0.00    +0.000 F 
ATOM     42  C31 UNL A   1      15.043  17.885  12.019  1.00  0.00    +0.000 C 
ATOM     43  F4  UNL A   1      15.143  18.531  13.190  1.00  0.00    +0.000 F 
ATOM     44  C32 UNL A   1      14.522  16.600  11.981  1.00  0.00    +0.000 C 
ATOM     45  F5  UNL A   1      14.096  16.013  13.107  1.00  0.00    +0.000 F 
ATOM     46  C33 UNL A   1      14.441  15.924  10.772  1.00  0.00    +0.000 C 
ATOM     47  F6  UNL A   1      13.923  14.689  10.729  1.00  0.00    +0.000 F 
ATOM     48  C34 UNL A   1      14.885  16.532   9.600  1.00  0.00    +0.000 C 
ATOM     49  F7  UNL A   1      14.792  15.855   8.446  1.00  0.00    +0.000 F 
ENDBRANCH   38   39
BRANCH   55   56
ATOM     65  C45 UNL A   1      11.244  21.728   4.279  1.00  0.00    +0.000 C 
ATOM     66  F12 UNL A   1      11.372  20.473   3.826  1.00  0.00    +0.000 F 
ATOM     56  C40 UNL A   1      12.304  22.346   4.962  1.00  0.00    +0.000 C 
ATOM     57  C41 UNL A   1      12.125  23.663   5.406  1.00  0.00    +0.000 C 
ATOM     58  F8  UNL A   1      13.107  24.288   6.073  1.00  0.00    +0.000 F 
ATOM     59  C42 UNL A   1      10.930  24.338   5.173  1.00  0.00    +0.000 C 
ATOM     60  F9  UNL A   1      10.773  25.590   5.623  1.00  0.00    +0.000 F 
ATOM     61  C43 UNL A   1       9.905  23.719   4.473  1.00  0.00    +0.000 C 
ATOM     62  F10 UNL A   1       8.766  24.381   4.227  1.00  0.00    +0.000 F 
ATOM     63  C44 UNL A   1      10.061  22.416   4.025  1.00  0.00    +0.000 C 
ATOM     64  F11 UNL A   1       9.079  21.823   3.333  1.00  0.00    +0.000 F 
ENDBRANCH   55   56
BRANCH   70   71
ATOM     71  C49 UNL A   1      18.137  22.325   1.125  1.00  0.00    +0.000 C 
ATOM     72  C50 UNL A   1      18.055  21.676  -0.116  1.00  0.00    +0.000 C 
ATOM     73  F13 UNL A   1      17.626  20.406  -0.178  1.00  0.00    +0.000 F 
ATOM     74  C51 UNL A   1      18.444  22.314  -1.291  1.00  0.00    +0.000 C 
ATOM     75  F14 UNL A   1      18.391  21.656  -2.457  1.00  0.00    +0.000 F 
ATOM     76  C52 UNL A   1      18.897  23.624  -1.254  1.00  0.00    +0.000 C 
ATOM     77  F15 UNL A   1      19.263  24.241  -2.386  1.00  0.00    +0.000 F 
ATOM     78  C53 UNL A   1      18.975  24.292  -0.041  1.00  0.00    +0.000 C 
ATOM     79  F16 UNL A   1      19.398  25.562  -0.003  1.00  0.00    +0.000 F 
ATOM     80  C54 UNL A   1      18.611  23.645   1.138  1.00  0.00    +0.000 C 
ATOM     81  F17 UNL A   1      18.707  24.312   2.298  1.00  0.00    +0.000 F 
ENDBRANCH   70   71
TORSDOF 18
ENDMDL
MODEL 10
REMARK VINA RESULT:     -11.2     46.067     50.927
ROOT
ATOM     34  C25 UNL A   1      14.010  53.742   5.325  1.00  0.00    +0.000 C 
ATOM     35  C26 UNL A   1      13.612  52.291   5.286  1.00  0.00    +0.000 C 
ATOM     36  N4  UNL A   1      13.995  51.351   4.458  1.00  0.00    +0.000 N 
ATOM     37  C27 UNL A   1      13.353  50.194   4.877  1.00  0.00    +0.000 C 
ATOM     38  C28 UNL A   1      13.362  48.968   4.304  1.00  0.00    +0.000 C 
ATOM     50  C35 UNL A   1      14.076  48.645   3.099  1.00  0.00    +0.000 C 
ATOM     51  C36 UNL A   1      14.109  47.442   2.416  1.00  0.00    +0.000 C 
ATOM     52  C37 UNL A   1      14.956  47.588   1.315  1.00  0.00    +0.000 C 
ATOM     53  C38 UNL A   1      15.415  48.895   1.287  1.00  0.00    +0.000 C 
ATOM     54  N5  UNL A   1      14.873  49.531   2.392  1.00  0.00    +0.000 N 
ATOM     55  C39 UNL A   1      16.287  49.515   0.324  1.00  0.00    +0.000 C 
ATOM     67  C46 UNL A   1      16.701  50.804   0.365  1.00  0.00    +0.000 C 
ATOM     68  N6  UNL A   1      16.383  51.791   1.287  1.00  0.00    +0.000 N 
ATOM     69  C47 UNL A   1      17.037  52.862   0.910  1.00  0.00    +0.000 C 
ATOM     70  C48 UNL A   1      17.038  54.237   1.522  1.00  0.00    +0.000 C 
ATOM     82  C55 UNL A   1      16.306  54.466   2.630  1.00  0.00    +0.000 C 
ATOM     83  C56 UNL A   1      16.186  55.750   3.318  1.00  0.00    +0.000 C 
ATOM     84  C57 UNL A   1      15.371  55.607   4.376  1.00  0.00    +0.000 C 
ATOM     85  C58 UNL A   1      14.886  54.226   4.423  1.00  0.00    +0.000 C 
ATOM     86  N7  UNL A   1      15.517  53.616   3.367  1.00  0.00    +0.000 N 
ATOM     87  C59 UNL A   1      17.871  52.664  -0.284  1.00  0.00    +0.000 C 
ATOM     88  C60 UNL A   1      17.600  51.403  -0.599  1.00  0.00    +0.000 C 
ATOM     89  C61 UNL A   1      12.602  50.529   6.066  1.00  0.00    +0.000 C 
ATOM     90  C62 UNL A   1      12.676  51.827   6.322  1.00  0.00    +0.000 C 
ATOM    117  H25 UNL A   1      13.596  46.584   2.674  1.00  0.00    +0.000 H 
ATOM    118  H26 UNL A   1      15.200  46.848   0.637  1.00  0.00    +0.000 H 
ATOM    119  H27 UNL A   1      15.031  50.471   2.638  1.00  0.00    +0.000 H 
ATOM    120  H28 UNL A   1      16.652  56.625   3.036  1.00  0.00    +0.000 H 
ATOM    121  H29 UNL A   1      15.127  56.350   5.048  1.00  0.00    +0.000 H 
ATOM    122  H30 UNL A   1      15.413  52.661   3.158  1.00  0.00    +0.000 H 
ATOM    123  H31 UNL A   1      18.503  53.329  -0.756  1.00  0.00    +0.000 H 
ATOM    124  H32 UNL A   1      17.980  50.913  -1.423  1.00  0.00    +0.000 H 
ATOM    125  H33 UNL A   1      12.077  49.849   6.638  1.00  0.00    +0.000 H 
ATOM    126  H34 UNL A   1      12.200  52.371   7.059  1.00  0.00    +0.000 H 
ENDROOT
BRANCH   34   33
ATOM     33  C24 UNL A   1      13.439  54.641   6.362  1.00  0.00    +0.000 C 
ATOM    127  H35 UNL A   1      15.036  54.399   7.728  1.00  0.00    +0.000 H 
ATOM    115  H23 UNL A   1      10.754  56.567   6.984  1.00  0.00    +0.000 H 
ATOM    116  H24 UNL A   1      11.693  55.128   5.273  1.00  0.00    +0.000 H 
ATOM     91  C63 UNL A   1      14.107  54.824   7.582  1.00  0.00    +0.000 C 
ATOM     92  C64 UNL A   1      13.522  55.579   8.599  1.00  0.00    +0.000 C 
ATOM     32  C23 UNL A   1      12.201  55.270   6.160  1.00  0.00    +0.000 C 
ATOM     30  C21 UNL A   1      12.318  56.251   8.369  1.00  0.00    +0.000 C 
ATOM     31  C22 UNL A   1      11.652  56.086   7.151  1.00  0.00    +0.000 C 
ATOM    128  H36 UNL A   1      13.979  55.642   9.521  1.00  0.00    +0.000 H 
BRANCH   30    2
ATOM      1  O1  UNL A   1      11.507  58.288   9.201  1.00  0.00    +0.000 O 
ATOM      2  C1  UNL A   1      11.681  57.090   9.411  1.00  0.00    +0.000 C 
BRANCH    2    3
ATOM      3  N1  UNL A   1      11.294  56.548  10.609  1.00  0.00    +0.000 N 
ATOM     93  H1  UNL A   1      11.624  57.021  11.407  1.00  0.00    +0.000 H 
BRANCH    3    4
ATOM      4  C2  UNL A   1      10.473  55.382  10.879  1.00  0.00    +0.000 C 
ATOM     94  H2  UNL A   1       9.816  55.225  10.050  1.00  0.00    +0.000 H 
ATOM     95  H3  UNL A   1       9.929  55.570  11.782  1.00  0.00    +0.000 H 
BRANCH    4    5
ATOM     97  H5  UNL A   1      10.603  53.341  11.315  1.00  0.00    +0.000 H 
ATOM      5  C3  UNL A   1      11.302  54.120  11.092  1.00  0.00    +0.000 C 
ATOM     96  H4  UNL A   1      11.870  53.944  10.202  1.00  0.00    +0.000 H 
BRANCH    5    6
ATOM     98  H6  UNL A   1      12.030  53.360  12.932  1.00  0.00    +0.000 H 
ATOM     99  H7  UNL A   1      12.158  55.135  12.710  1.00  0.00    +0.000 H 
ATOM      6  C4  UNL A   1      12.275  54.166  12.272  1.00  0.00    +0.000 C 
BRANCH    6    7
ATOM    100  H8  UNL A   1      14.136  55.032  11.743  1.00  0.00    +0.000 H 
ATOM    101  H9  UNL A   1      13.801  53.411  11.054  1.00  0.00    +0.000 H 
ATOM      7  C5  UNL A   1      13.759  54.046  11.914  1.00  0.00    +0.000 C 
BRANCH    7    8
ATOM    102  H10 UNL A   1      14.317  53.713  13.934  1.00  0.00    +0.000 H 
ATOM    103  H11 UNL A   1      15.649  53.664  12.738  1.00  0.00    +0.000 H 
ATOM      8  C6  UNL A   1      14.643  53.380  12.971  1.00  0.00    +0.000 C 
BRANCH    8    9
ATOM      9  C7  UNL A   1      14.623  51.855  12.967  1.00  0.00    +0.000 C 
ATOM    105  H13 UNL A   1      14.878  51.520  13.952  1.00  0.00    +0.000 H 
ATOM    104  H12 UNL A   1      13.645  51.524  12.686  1.00  0.00    +0.000 H 
BRANCH    9   10
ATOM     10  N2  UNL A   1      15.590  51.295  12.043  1.00  0.00    +0.000 N 
ATOM    106  H14 UNL A   1      16.494  51.145  12.406  1.00  0.00    +0.000 H 
BRANCH   10   11
ATOM     11  C8  UNL A   1      15.407  50.951  10.727  1.00  0.00    +0.000 C 
ATOM     12  O2  UNL A   1      16.283  51.177   9.896  1.00  0.00    +0.000 O 
BRANCH   11   13
ATOM    107  H15 UNL A   1      13.067  52.010  10.165  1.00  0.00    +0.000 H 
ATOM    108  H16 UNL A   1      11.031  50.917   9.420  1.00  0.00    +0.000 H 
ATOM     13  C9  UNL A   1      14.188  50.226  10.320  1.00  0.00    +0.000 C 
ATOM     14  C10 UNL A   1      13.044  50.985  10.050  1.00  0.00    +0.000 C 
ATOM     15  C11 UNL A   1      11.873  50.355   9.624  1.00  0.00    +0.000 C 
ATOM     16  C12 UNL A   1      11.836  48.962   9.475  1.00  0.00    +0.000 C 
ATOM    113  H21 UNL A   1      12.952  47.177   9.691  1.00  0.00    +0.000 H 
ATOM     27  C19 UNL A   1      12.977  48.204   9.783  1.00  0.00    +0.000 C 
ATOM     28  C20 UNL A   1      14.145  48.833  10.215  1.00  0.00    +0.000 C 
BRANCH   16   17
ATOM    109  H17 UNL A   1      10.656  46.624  10.395  1.00  0.00    +0.000 H 
ATOM    110  H18 UNL A   1       8.840  45.457   9.446  1.00  0.00    +0.000 H 
ATOM    112  H20 UNL A   1      10.264  49.684   7.549  1.00  0.00    +0.000 H 
ATOM     17  C13 UNL A   1      10.626  48.267   8.998  1.00  0.00    +0.000 C 
ATOM     18  C14 UNL A   1      10.173  47.013   9.569  1.00  0.00    +0.000 C 
ATOM     19  C15 UNL A   1       9.137  46.357   9.036  1.00  0.00    +0.000 C 
ATOM     20  N3  UNL A   1       8.460  46.864   7.944  1.00  0.00    +0.000 N 
ATOM     24  C17 UNL A   1       8.794  48.073   7.355  1.00  0.00    +0.000 C 
ATOM     25  O3  UNL A   1       8.229  48.582   6.393  1.00  0.00    +0.000 O 
ATOM     26  C18 UNL A   1       9.962  48.783   7.949  1.00  0.00    +0.000 C 
BRANCH   20   21
ATOM     21  C16 UNL A   1       7.375  46.126   7.350  1.00  0.00    +0.000 C 
ATOM     22  F1  UNL A   1       7.492  44.799   7.593  1.00  0.00    +0.000 F 
ATOM    111  H19 UNL A   1       7.418  46.304   6.296  1.00  0.00    +0.000 H 
ATOM     23  F2  UNL A   1       6.182  46.541   7.843  1.00  0.00    +0.000 F 
ENDBRANCH   20   21
ENDBRANCH   16   17
BRANCH   28   29
ATOM    114  H22 UNL A   1      15.168  47.145  10.576  1.00  0.00    +0.000 H 
ATOM     29  O4  UNL A   1      15.243  48.076  10.519  1.00  0.00    +0.000 O 
ENDBRANCH   28   29
ENDBRANCH   11   13
ENDBRANCH   10   11
ENDBRANCH    9   10
ENDBRANCH    8    9
ENDBRANCH    7    8
ENDBRANCH    6    7
ENDBRANCH    5    6
ENDBRANCH    4    5
ENDBRANCH    3    4
ENDBRANCH    2    3
ENDBRANCH   30    2
ENDBRANCH   34   33
BRANCH   38   39
ATOM     39  C29 UNL A   1      12.554  47.881   4.948  1.00  0.00    +0.000 C 
ATOM     40  C30 UNL A   1      11.368  47.413   4.363  1.00  0.00    +0.000 C 
ATOM     41  F3  UNL A   1      10.881  48.000   3.260  1.00  0.00    +0.000 F 
ATOM     42  C31 UNL A   1      10.669  46.345   4.920  1.00  0.00    +0.000 C 
ATOM     43  F4  UNL A   1       9.525  45.930   4.359  1.00  0.00    +0.000 F 
ATOM     44  C32 UNL A   1      11.154  45.709   6.053  1.00  0.00    +0.000 C 
ATOM     45  F5  UNL A   1      10.493  44.667   6.574  1.00  0.00    +0.000 F 
ATOM     46  C33 UNL A   1      12.327  46.154   6.646  1.00  0.00    +0.000 C 
ATOM     47  F6  UNL A   1      12.806  45.532   7.732  1.00  0.00    +0.000 F 
ATOM     48  C34 UNL A   1      13.015  47.239   6.107  1.00  0.00    +0.000 C 
ATOM     49  F7  UNL A   1      14.147  47.645   6.700  1.00  0.00    +0.000 F 
ENDBRANCH   38   39
BRANCH   55   56
ATOM     65  C45 UNL A   1      15.942  48.440  -1.928  1.00  0.00    +0.000 C 
ATOM     66  F12 UNL A   1      14.762  49.069  -2.031  1.00  0.00    +0.000 F 
ATOM     56  C40 UNL A   1      16.765  48.658  -0.811  1.00  0.00    +0.000 C 
ATOM     57  C41 UNL A   1      17.983  47.969  -0.744  1.00  0.00    +0.000 C 
ATOM     58  F8  UNL A   1      18.806  48.155   0.299  1.00  0.00    +0.000 F 
ATOM     59  C42 UNL A   1      18.363  47.093  -1.756  1.00  0.00    +0.000 C 
ATOM     60  F9  UNL A   1      19.541  46.459  -1.682  1.00  0.00    +0.000 F 
ATOM     61  C43 UNL A   1      17.524  46.871  -2.839  1.00  0.00    +0.000 C 
ATOM     62  F10 UNL A   1      17.880  46.007  -3.798  1.00  0.00    +0.000 F 
ATOM     63  C44 UNL A   1      16.313  47.543  -2.924  1.00  0.00    +0.000 C 
ATOM     64  F11 UNL A   1      15.494  47.317  -3.960  1.00  0.00    +0.000 F 
ENDBRANCH   55   56
BRANCH   70   71
ATOM     71  C49 UNL A   1      17.803  55.348   0.898  1.00  0.00    +0.000 C 
ATOM     72  C50 UNL A   1      19.052  55.736   1.405  1.00  0.00    +0.000 C 
ATOM     73  F13 UNL A   1      19.558  55.116   2.482  1.00  0.00    +0.000 F 
ATOM     74  C51 UNL A   1      19.771  56.782   0.831  1.00  0.00    +0.000 C 
ATOM     75  F14 UNL A   1      20.943  57.157   1.361  1.00  0.00    +0.000 F 
ATOM     76  C52 UNL A   1      19.268  57.445  -0.278  1.00  0.00    +0.000 C 
ATOM     77  F15 UNL A   1      19.962  58.446  -0.835  1.00  0.00    +0.000 F 
ATOM     78  C53 UNL A   1      18.041  57.071  -0.806  1.00  0.00    +0.000 C 
ATOM     79  F16 UNL A   1      17.559  57.699  -1.887  1.00  0.00    +0.000 F 
ATOM     80  C54 UNL A   1      17.310  56.042  -0.217  1.00  0.00    +0.000 C 
ATOM     81  F17 UNL A   1      16.122  55.709  -0.743  1.00  0.00    +0.000 F 
ENDBRANCH   70   71
TORSDOF 18
ENDMDL
