MODEL 1
REMARK VINA RESULT:     -13.2      0.000      0.000
ROOT
ATOM     21  C17 UNL A   1      40.779  28.347  28.925  1.00  0.00    +0.000 C 
ATOM     22  C18 UNL A   1      41.346  27.124  28.321  1.00  0.00    +0.000 C 
ATOM     23  N3  UNL A   1      42.374  26.494  28.789  1.00  0.00    +0.000 N 
ATOM     24  C19 UNL A   1      42.747  25.553  27.857  1.00  0.00    +0.000 C 
ATOM     25  C20 UNL A   1      43.976  24.964  27.936  1.00  0.00    +0.000 C 
ATOM     37  C27 UNL A   1      44.735  25.454  29.081  1.00  0.00    +0.000 C 
ATOM     38  C28 UNL A   1      45.697  26.444  29.196  1.00  0.00    +0.000 C 
ATOM     39  C29 UNL A   1      45.854  26.750  30.567  1.00  0.00    +0.000 C 
ATOM     40  C30 UNL A   1      44.994  25.941  31.287  1.00  0.00    +0.000 C 
ATOM     41  N4  UNL A   1      44.337  25.136  30.375  1.00  0.00    +0.000 N 
ATOM     42  C31 UNL A   1      44.734  25.837  32.712  1.00  0.00    +0.000 C 
ATOM     54  C38 UNL A   1      44.107  26.915  33.263  1.00  0.00    +0.000 C 
ATOM     55  N5  UNL A   1      43.503  27.870  32.489  1.00  0.00    +0.000 N 
ATOM     56  C39 UNL A   1      42.920  28.741  33.263  1.00  0.00    +0.000 C 
ATOM     57  C40 UNL A   1      42.066  29.871  32.754  1.00  0.00    +0.000 C 
ATOM     69  C47 UNL A   1      42.279  30.191  31.446  1.00  0.00    +0.000 C 
ATOM     70  C48 UNL A   1      43.467  29.852  30.682  1.00  0.00    +0.000 C 
ATOM     71  C49 UNL A   1      43.055  29.200  29.585  1.00  0.00    +0.000 C 
ATOM     72  C50 UNL A   1      41.596  29.222  29.555  1.00  0.00    +0.000 C 
ATOM     73  N6  UNL A   1      41.220  30.221  30.493  1.00  0.00    +0.000 N 
ATOM     74  C51 UNL A   1      43.129  28.464  34.681  1.00  0.00    +0.000 C 
ATOM     75  C52 UNL A   1      43.869  27.343  34.628  1.00  0.00    +0.000 C 
ATOM     76  C53 UNL A   1      41.685  25.557  26.874  1.00  0.00    +0.000 C 
ATOM     77  C54 UNL A   1      40.772  26.498  27.138  1.00  0.00    +0.000 C 
ATOM    117  H22 UNL A   1      46.211  26.882  28.417  1.00  0.00    +0.000 H 
ATOM    118  H23 UNL A   1      46.496  27.455  30.961  1.00  0.00    +0.000 H 
ATOM    119  H24 UNL A   1      43.683  24.439  30.608  1.00  0.00    +0.000 H 
ATOM    120  H25 UNL A   1      44.443  30.071  30.936  1.00  0.00    +0.000 H 
ATOM    121  H26 UNL A   1      43.666  28.758  28.880  1.00  0.00    +0.000 H 
ATOM    122  H27 UNL A   1      40.420  30.795  30.485  1.00  0.00    +0.000 H 
ATOM    123  H28 UNL A   1      42.796  28.988  35.506  1.00  0.00    +0.000 H 
ATOM    124  H29 UNL A   1      44.226  26.846  35.459  1.00  0.00    +0.000 H 
ATOM    125  H30 UNL A   1      41.637  24.913  26.069  1.00  0.00    +0.000 H 
ATOM    126  H31 UNL A   1      39.897  26.722  26.637  1.00  0.00    +0.000 H 
ENDROOT
BRANCH   21   20
ATOM     78  C55 UNL A   1      38.961  29.408  27.701  1.00  0.00    +0.000 C 
ATOM     79  C56 UNL A   1      37.706  29.985  27.673  1.00  0.00    +0.000 C 
ATOM     17  C13 UNL A   1      36.903  29.916  28.810  1.00  0.00    +0.000 C 
ATOM     18  C14 UNL A   1      37.216  29.028  29.845  1.00  0.00    +0.000 C 
ATOM     19  C15 UNL A   1      38.451  28.381  29.839  1.00  0.00    +0.000 C 
ATOM    115  H20 UNL A   1      36.540  28.853  30.605  1.00  0.00    +0.000 H 
ATOM    116  H21 UNL A   1      38.690  27.704  30.580  1.00  0.00    +0.000 H 
ATOM     20  C16 UNL A   1      39.359  28.662  28.816  1.00  0.00    +0.000 C 
ATOM    127  H32 UNL A   1      39.604  29.526  26.903  1.00  0.00    +0.000 H 
ATOM    128  H33 UNL A   1      37.368  30.461  26.823  1.00  0.00    +0.000 H 
BRANCH   17   15
ATOM     15  C12 UNL A   1      35.813  30.894  29.041  1.00  0.00    +0.000 C 
ATOM     16  O2  UNL A   1      35.649  31.378  30.147  1.00  0.00    +0.000 O 
BRANCH   15   14
ATOM    114  H19 UNL A   1      35.470  32.030  27.413  1.00  0.00    +0.000 H 
ATOM     14  N2  UNL A   1      35.059  31.325  27.963  1.00  0.00    +0.000 N 
BRANCH   14   13
ATOM    113  H18 UNL A   1      33.266  31.719  27.065  1.00  0.00    +0.000 H 
ATOM     13  C11 UNL A   1      33.742  30.879  27.527  1.00  0.00    +0.000 C 
ATOM    112  H17 UNL A   1      33.206  30.525  28.384  1.00  0.00    +0.000 H 
BRANCH   13   12
ATOM     12  C10 UNL A   1      33.780  29.765  26.490  1.00  0.00    +0.000 C 
ATOM    110  H15 UNL A   1      32.878  29.810  25.917  1.00  0.00    +0.000 H 
ATOM    111  H16 UNL A   1      34.658  29.927  25.899  1.00  0.00    +0.000 H 
BRANCH   12   11
ATOM     11  C9  UNL A   1      33.903  28.355  27.080  1.00  0.00    +0.000 C 
ATOM    108  H13 UNL A   1      34.942  28.167  27.256  1.00  0.00    +0.000 H 
ATOM    109  H14 UNL A   1      33.296  28.364  27.961  1.00  0.00    +0.000 H 
BRANCH   11   10
ATOM     10  C8  UNL A   1      33.358  27.200  26.222  1.00  0.00    +0.000 C 
ATOM    107  H12 UNL A   1      33.627  26.307  26.749  1.00  0.00    +0.000 H 
ATOM    106  H11 UNL A   1      33.788  27.290  25.247  1.00  0.00    +0.000 H 
BRANCH   10    9
ATOM      9  C7  UNL A   1      31.834  27.126  26.055  1.00  0.00    +0.000 C 
ATOM    105  H10 UNL A   1      31.535  28.064  25.634  1.00  0.00    +0.000 H 
ATOM    104  H9  UNL A   1      31.405  26.934  27.017  1.00  0.00    +0.000 H 
BRANCH    9    8
ATOM    102  H7  UNL A   1      30.506  25.547  25.538  1.00  0.00    +0.000 H 
ATOM    103  H8  UNL A   1      31.063  26.535  24.178  1.00  0.00    +0.000 H 
ATOM      8  C6  UNL A   1      31.338  26.049  25.091  1.00  0.00    +0.000 C 
BRANCH    8    7
ATOM    101  H6  UNL A   1      32.671  24.526  25.533  1.00  0.00    +0.000 H 
ATOM      7  N1  UNL A   1      32.355  25.070  24.776  1.00  0.00    +0.000 N 
BRANCH    7    5
ATOM      5  C5  UNL A   1      32.939  24.799  23.571  1.00  0.00    +0.000 C 
ATOM      6  O1  UNL A   1      33.550  25.706  23.002  1.00  0.00    +0.000 O 
BRANCH    5    4
ATOM    100  H5  UNL A   1      33.180  23.500  21.939  1.00  0.00    +0.000 H 
ATOM     99  H4  UNL A   1      31.777  23.128  22.973  1.00  0.00    +0.000 H 
ATOM      4  C4  UNL A   1      32.806  23.417  22.938  1.00  0.00    +0.000 C 
BRANCH    4    3
ATOM    129  H34 UNL A   1      35.134  23.728  24.130  1.00  0.00    +0.000 H 
ATOM      2  C2  UNL A   1      33.239  20.974  23.690  1.00  0.00    +0.000 C 
ATOM      3  C3  UNL A   1      33.628  22.337  23.624  1.00  0.00    +0.000 C 
ATOM    135  H40 UNL A   1      35.852  19.842  25.495  1.00  0.00    +0.000 H 
ATOM     80  C57 UNL A   1      34.847  22.740  24.208  1.00  0.00    +0.000 C 
ATOM     81  C58 UNL A   1      35.678  21.845  24.886  1.00  0.00    +0.000 C 
ATOM     88  C65 UNL A   1      35.261  20.513  24.979  1.00  0.00    +0.000 C 
ATOM     89  C66 UNL A   1      34.061  20.054  24.396  1.00  0.00    +0.000 C 
BRANCH    2    1
ATOM      1  C1  UNL A   1      32.000  20.489  22.968  1.00  0.00    +0.000 C 
ATOM     98  H3  UNL A   1      31.189  21.157  23.166  1.00  0.00    +0.000 H 
ATOM     97  H2  UNL A   1      32.189  20.459  21.915  1.00  0.00    +0.000 H 
ATOM     96  H1  UNL A   1      31.747  19.509  23.314  1.00  0.00    +0.000 H 
ENDBRANCH    2    1
BRANCH   81   82
ATOM    130  H35 UNL A   1      37.992  20.484  25.146  1.00  0.00    +0.000 H 
ATOM    131  H36 UNL A   1      40.069  21.216  26.153  1.00  0.00    +0.000 H 
ATOM    132  H37 UNL A   1      40.253  23.452  27.074  1.00  0.00    +0.000 H 
ATOM    133  H38 UNL A   1      38.358  24.961  26.972  1.00  0.00    +0.000 H 
ATOM    134  H39 UNL A   1      36.282  24.238  25.958  1.00  0.00    +0.000 H 
ATOM     82  C59 UNL A   1      36.952  22.295  25.468  1.00  0.00    +0.000 C 
ATOM     83  C60 UNL A   1      38.062  21.438  25.533  1.00  0.00    +0.000 C 
ATOM     84  C61 UNL A   1      39.262  21.858  26.114  1.00  0.00    +0.000 C 
ATOM     85  C62 UNL A   1      39.369  23.142  26.642  1.00  0.00    +0.000 C 
ATOM     86  C63 UNL A   1      38.280  24.009  26.583  1.00  0.00    +0.000 C 
ATOM     87  C64 UNL A   1      37.082  23.589  25.999  1.00  0.00    +0.000 C 
ENDBRANCH   81   82
BRANCH   89   90
ATOM    136  H41 UNL A   1      35.026  17.912  23.095  1.00  0.00    +0.000 H 
ATOM    137  H42 UNL A   1      34.477  15.574  23.393  1.00  0.00    +0.000 H 
ATOM    138  H43 UNL A   1      32.850  14.911  25.067  1.00  0.00    +0.000 H 
ATOM    139  H44 UNL A   1      31.747  16.599  26.415  1.00  0.00    +0.000 H 
ATOM    140  H45 UNL A   1      32.260  18.943  26.092  1.00  0.00    +0.000 H 
ATOM     90  C67 UNL A   1      33.706  18.632  24.582  1.00  0.00    +0.000 C 
ATOM     91  C68 UNL A   1      34.327  17.639  23.804  1.00  0.00    +0.000 C 
ATOM     92  C69 UNL A   1      34.013  16.289  23.975  1.00  0.00    +0.000 C 
ATOM     93  C70 UNL A   1      33.075  15.910  24.932  1.00  0.00    +0.000 C 
ATOM     94  C71 UNL A   1      32.442  16.879  25.706  1.00  0.00    +0.000 C 
ATOM     95  C72 UNL A   1      32.747  18.231  25.525  1.00  0.00    +0.000 C 
ENDBRANCH   89   90
ENDBRANCH    4    3
ENDBRANCH    5    4
ENDBRANCH    7    5
ENDBRANCH    8    7
ENDBRANCH    9    8
ENDBRANCH   10    9
ENDBRANCH   11   10
ENDBRANCH   12   11
ENDBRANCH   13   12
ENDBRANCH   14   13
ENDBRANCH   15   14
ENDBRANCH   17   15
ENDBRANCH   21   20
BRANCH   25   26
ATOM     33  C25 UNL A   1      46.304  23.937  25.039  1.00  0.00    +0.000 C 
ATOM     34  F4  UNL A   1      47.290  24.484  24.314  1.00  0.00    +0.000 F 
ATOM     35  C26 UNL A   1      45.562  24.735  25.918  1.00  0.00    +0.000 C 
ATOM     36  F5  UNL A   1      45.782  26.056  25.864  1.00  0.00    +0.000 F 
ATOM     26  C21 UNL A   1      44.602  24.196  26.791  1.00  0.00    +0.000 C 
ATOM     27  C22 UNL A   1      44.294  22.836  26.567  1.00  0.00    +0.000 C 
ATOM     28  F1  UNL A   1      43.307  22.220  27.228  1.00  0.00    +0.000 F 
ATOM     29  C23 UNL A   1      44.996  22.049  25.651  1.00  0.00    +0.000 C 
ATOM     30  F2  UNL A   1      44.672  20.756  25.499  1.00  0.00    +0.000 F 
ATOM     31  C24 UNL A   1      46.033  22.589  24.920  1.00  0.00    +0.000 C 
ATOM     32  F3  UNL A   1      46.750  21.819  24.089  1.00  0.00    +0.000 F 
ENDBRANCH   25   26
BRANCH   42   43
ATOM     43  C32 UNL A   1      45.247  24.646  33.472  1.00  0.00    +0.000 C 
ATOM     44  C33 UNL A   1      44.498  23.478  33.679  1.00  0.00    +0.000 C 
ATOM     45  F6  UNL A   1      43.246  23.365  33.212  1.00  0.00    +0.000 F 
ATOM     46  C34 UNL A   1      45.034  22.363  34.328  1.00  0.00    +0.000 C 
ATOM     47  F7  UNL A   1      44.267  21.284  34.539  1.00  0.00    +0.000 F 
ATOM     48  C35 UNL A   1      46.357  22.355  34.734  1.00  0.00    +0.000 C 
ATOM     49  F8  UNL A   1      46.878  21.270  35.321  1.00  0.00    +0.000 F 
ATOM     50  C36 UNL A   1      47.141  23.468  34.507  1.00  0.00    +0.000 C 
ATOM     51  F9  UNL A   1      48.436  23.458  34.852  1.00  0.00    +0.000 F 
ATOM     52  C37 UNL A   1      46.593  24.600  33.904  1.00  0.00    +0.000 C 
ATOM     53  F10 UNL A   1      47.416  25.645  33.734  1.00  0.00    +0.000 F 
ENDBRANCH   42   43
BRANCH   57   58
ATOM     65  C45 UNL A   1      38.331  29.582  33.213  1.00  0.00    +0.000 C 
ATOM     66  F14 UNL A   1      37.371  28.660  33.047  1.00  0.00    +0.000 F 
ATOM     67  C46 UNL A   1      39.674  29.202  33.157  1.00  0.00    +0.000 C 
ATOM     68  F15 UNL A   1      39.968  27.915  32.926  1.00  0.00    +0.000 F 
ATOM     58  C41 UNL A   1      40.691  30.159  33.232  1.00  0.00    +0.000 C 
ATOM     59  C42 UNL A   1      40.315  31.496  33.455  1.00  0.00    +0.000 C 
ATOM     60  F11 UNL A   1      41.254  32.453  33.535  1.00  0.00    +0.000 F 
ATOM     61  C43 UNL A   1      38.975  31.874  33.500  1.00  0.00    +0.000 C 
ATOM     62  F12 UNL A   1      38.648  33.168  33.622  1.00  0.00    +0.000 F 
ATOM     63  C44 UNL A   1      37.984  30.918  33.356  1.00  0.00    +0.000 C 
ATOM     64  F13 UNL A   1      36.696  31.285  33.322  1.00  0.00    +0.000 F 
ENDBRANCH   57   58
TORSDOF 19
ENDMDL
MODEL 2
REMARK VINA RESULT:     -12.1      1.800      2.688
ROOT
ATOM     21  C17 UNL A   1      40.730  28.122  28.702  1.00  0.00    +0.000 C 
ATOM     22  C18 UNL A   1      41.243  26.856  28.141  1.00  0.00    +0.000 C 
ATOM     23  N3  UNL A   1      42.284  26.234  28.591  1.00  0.00    +0.000 N 
ATOM     24  C19 UNL A   1      42.592  25.234  27.696  1.00  0.00    +0.000 C 
ATOM     25  C20 UNL A   1      43.814  24.628  27.745  1.00  0.00    +0.000 C 
ATOM     37  C27 UNL A   1      44.639  25.166  28.820  1.00  0.00    +0.000 C 
ATOM     38  C28 UNL A   1      45.623  26.142  28.828  1.00  0.00    +0.000 C 
ATOM     39  C29 UNL A   1      45.856  26.522  30.169  1.00  0.00    +0.000 C 
ATOM     40  C30 UNL A   1      45.022  25.772  30.978  1.00  0.00    +0.000 C 
ATOM     41  N4  UNL A   1      44.305  24.930  30.149  1.00  0.00    +0.000 N 
ATOM     42  C31 UNL A   1      44.836  25.753  32.418  1.00  0.00    +0.000 C 
ATOM     54  C38 UNL A   1      44.257  26.873  32.938  1.00  0.00    +0.000 C 
ATOM     55  N5  UNL A   1      43.629  27.794  32.142  1.00  0.00    +0.000 N 
ATOM     56  C39 UNL A   1      43.102  28.718  32.895  1.00  0.00    +0.000 C 
ATOM     57  C40 UNL A   1      42.241  29.834  32.366  1.00  0.00    +0.000 C 
ATOM     69  C47 UNL A   1      42.390  30.076  31.033  1.00  0.00    +0.000 C 
ATOM     70  C48 UNL A   1      43.531  29.671  30.229  1.00  0.00    +0.000 C 
ATOM     71  C49 UNL A   1      43.051  28.967  29.194  1.00  0.00    +0.000 C 
ATOM     72  C50 UNL A   1      41.592  29.015  29.238  1.00  0.00    +0.000 C 
ATOM     73  N6  UNL A   1      41.282  30.073  30.135  1.00  0.00    +0.000 N 
ATOM     74  C51 UNL A   1      43.380  28.517  34.314  1.00  0.00    +0.000 C 
ATOM     75  C52 UNL A   1      44.097  27.381  34.286  1.00  0.00    +0.000 C 
ATOM     76  C53 UNL A   1      41.480  25.204  26.771  1.00  0.00    +0.000 C 
ATOM     77  C54 UNL A   1      40.598  26.176  27.027  1.00  0.00    +0.000 C 
ATOM    117  H22 UNL A   1      46.102  26.526  27.999  1.00  0.00    +0.000 H 
ATOM    118  H23 UNL A   1      46.530  27.235  30.489  1.00  0.00    +0.000 H 
ATOM    119  H24 UNL A   1      43.653  24.260  30.454  1.00  0.00    +0.000 H 
ATOM    120  H25 UNL A   1      44.522  29.886  30.420  1.00  0.00    +0.000 H 
ATOM    121  H26 UNL A   1      43.616  28.474  28.486  1.00  0.00    +0.000 H 
ATOM    122  H27 UNL A   1      40.493  30.661  30.137  1.00  0.00    +0.000 H 
ATOM    123  H28 UNL A   1      43.100  29.093  35.124  1.00  0.00    +0.000 H 
ATOM    124  H29 UNL A   1      44.489  26.925  35.125  1.00  0.00    +0.000 H 
ATOM    125  H30 UNL A   1      41.379  24.517  26.007  1.00  0.00    +0.000 H 
ATOM    126  H31 UNL A   1      39.702  26.388  26.560  1.00  0.00    +0.000 H 
ENDROOT
BRANCH   21   20
ATOM     78  C55 UNL A   1      38.868  29.151  27.518  1.00  0.00    +0.000 C 
ATOM     79  C56 UNL A   1      37.623  29.750  27.521  1.00  0.00    +0.000 C 
ATOM     17  C13 UNL A   1      36.879  29.757  28.700  1.00  0.00    +0.000 C 
ATOM     18  C14 UNL A   1      37.230  28.919  29.764  1.00  0.00    +0.000 C 
ATOM     19  C15 UNL A   1      38.453  28.250  29.730  1.00  0.00    +0.000 C 
ATOM    115  H20 UNL A   1      36.591  28.798  30.566  1.00  0.00    +0.000 H 
ATOM    116  H21 UNL A   1      38.718  27.608  30.494  1.00  0.00    +0.000 H 
ATOM     20  C16 UNL A   1      39.311  28.458  28.649  1.00  0.00    +0.000 C 
ATOM    127  H32 UNL A   1      39.471  29.214  26.682  1.00  0.00    +0.000 H 
ATOM    128  H33 UNL A   1      37.249  30.187  26.665  1.00  0.00    +0.000 H 
BRANCH   17   15
ATOM     15  C12 UNL A   1      35.819  30.767  28.933  1.00  0.00    +0.000 C 
ATOM     16  O2  UNL A   1      35.780  31.382  29.984  1.00  0.00    +0.000 O 
BRANCH   15   14
ATOM    114  H19 UNL A   1      35.154  31.891  27.400  1.00  0.00    +0.000 H 
ATOM     14  N2  UNL A   1      34.946  31.072  27.903  1.00  0.00    +0.000 N 
BRANCH   14   13
ATOM    113  H18 UNL A   1      33.125  31.060  26.976  1.00  0.00    +0.000 H 
ATOM     13  C11 UNL A   1      33.761  30.348  27.459  1.00  0.00    +0.000 C 
ATOM    112  H17 UNL A   1      33.299  29.900  28.315  1.00  0.00    +0.000 H 
BRANCH   13   12
ATOM     12  C10 UNL A   1      34.053  29.252  26.443  1.00  0.00    +0.000 C 
ATOM    110  H15 UNL A   1      34.013  29.684  25.464  1.00  0.00    +0.000 H 
ATOM    111  H16 UNL A   1      35.019  28.859  26.686  1.00  0.00    +0.000 H 
BRANCH   12   11
ATOM     11  C9  UNL A   1      33.075  28.072  26.487  1.00  0.00    +0.000 C 
ATOM    108  H13 UNL A   1      33.537  27.249  25.983  1.00  0.00    +0.000 H 
ATOM    109  H14 UNL A   1      32.880  27.906  27.526  1.00  0.00    +0.000 H 
BRANCH   11   10
ATOM     10  C8  UNL A   1      31.695  28.299  25.845  1.00  0.00    +0.000 C 
ATOM    107  H12 UNL A   1      31.054  28.593  26.651  1.00  0.00    +0.000 H 
ATOM    106  H11 UNL A   1      31.411  27.389  25.358  1.00  0.00    +0.000 H 
BRANCH   10    9
ATOM      9  C7  UNL A   1      31.592  29.430  24.814  1.00  0.00    +0.000 C 
ATOM    105  H10 UNL A   1      32.558  29.890  24.779  1.00  0.00    +0.000 H 
ATOM    104  H9  UNL A   1      30.815  30.095  25.128  1.00  0.00    +0.000 H 
BRANCH    9    8
ATOM    102  H7  UNL A   1      30.892  27.987  23.416  1.00  0.00    +0.000 H 
ATOM    103  H8  UNL A   1      30.576  29.672  22.976  1.00  0.00    +0.000 H 
ATOM      8  C6  UNL A   1      31.283  28.981  23.386  1.00  0.00    +0.000 C 
BRANCH    8    7
ATOM    101  H6  UNL A   1      32.474  29.707  21.854  1.00  0.00    +0.000 H 
ATOM      7  N1  UNL A   1      32.451  28.994  22.532  1.00  0.00    +0.000 N 
BRANCH    7    5
ATOM      5  C5  UNL A   1      33.526  28.150  22.538  1.00  0.00    +0.000 C 
ATOM      6  O1  UNL A   1      34.614  28.594  22.910  1.00  0.00    +0.000 O 
BRANCH    5    4
ATOM    100  H5  UNL A   1      34.253  26.486  21.483  1.00  0.00    +0.000 H 
ATOM     99  H4  UNL A   1      32.477  26.627  21.498  1.00  0.00    +0.000 H 
ATOM      4  C4  UNL A   1      33.381  26.707  22.063  1.00  0.00    +0.000 C 
BRANCH    4    3
ATOM    129  H34 UNL A   1      35.409  25.333  23.029  1.00  0.00    +0.000 H 
ATOM      2  C2  UNL A   1      32.143  25.313  23.864  1.00  0.00    +0.000 C 
ATOM      3  C3  UNL A   1      33.333  25.685  23.187  1.00  0.00    +0.000 C 
ATOM    135  H40 UNL A   1      33.518  23.140  26.045  1.00  0.00    +0.000 H 
ATOM     80  C57 UNL A   1      34.554  25.077  23.547  1.00  0.00    +0.000 C 
ATOM     81  C58 UNL A   1      34.643  24.140  24.579  1.00  0.00    +0.000 C 
ATOM     88  C65 UNL A   1      33.468  23.815  25.265  1.00  0.00    +0.000 C 
ATOM     89  C66 UNL A   1      32.217  24.378  24.932  1.00  0.00    +0.000 C 
BRANCH    2    1
ATOM      1  C1  UNL A   1      30.801  25.854  23.419  1.00  0.00    +0.000 C 
ATOM     98  H3  UNL A   1      30.658  25.644  22.381  1.00  0.00    +0.000 H 
ATOM     97  H2  UNL A   1      30.023  25.389  23.988  1.00  0.00    +0.000 H 
ATOM     96  H1  UNL A   1      30.774  26.913  23.576  1.00  0.00    +0.000 H 
ENDBRANCH    2    1
BRANCH   81   82
ATOM    130  H35 UNL A   1      35.696  21.837  23.650  1.00  0.00    +0.000 H 
ATOM    131  H36 UNL A   1      37.791  20.784  24.251  1.00  0.00    +0.000 H 
ATOM    132  H37 UNL A   1      39.257  21.831  25.875  1.00  0.00    +0.000 H 
ATOM    133  H38 UNL A   1      38.628  23.944  26.886  1.00  0.00    +0.000 H 
ATOM    134  H39 UNL A   1      36.539  25.005  26.281  1.00  0.00    +0.000 H 
ATOM     82  C59 UNL A   1      35.930  23.512  24.916  1.00  0.00    +0.000 C 
ATOM     83  C60 UNL A   1      36.314  22.290  24.339  1.00  0.00    +0.000 C 
ATOM     84  C61 UNL A   1      37.523  21.681  24.685  1.00  0.00    +0.000 C 
ATOM     85  C62 UNL A   1      38.366  22.282  25.616  1.00  0.00    +0.000 C 
ATOM     86  C63 UNL A   1      38.004  23.496  26.197  1.00  0.00    +0.000 C 
ATOM     87  C64 UNL A   1      36.797  24.106  25.848  1.00  0.00    +0.000 C 
ENDBRANCH   81   82
BRANCH   89   90
ATOM    136  H41 UNL A   1      30.304  25.950  25.969  1.00  0.00    +0.000 H 
ATOM    137  H42 UNL A   1      28.370  25.329  27.286  1.00  0.00    +0.000 H 
ATOM    138  H43 UNL A   1      27.961  22.998  27.820  1.00  0.00    +0.000 H 
ATOM    139  H44 UNL A   1      29.514  21.295  27.066  1.00  0.00    +0.000 H 
ATOM    140  H45 UNL A   1      31.473  21.913  25.785  1.00  0.00    +0.000 H 
ATOM     90  C67 UNL A   1      31.048  23.984  25.744  1.00  0.00    +0.000 C 
ATOM     91  C68 UNL A   1      30.141  24.957  26.200  1.00  0.00    +0.000 C 
ATOM     92  C69 UNL A   1      29.024  24.601  26.957  1.00  0.00    +0.000 C 
ATOM     93  C70 UNL A   1      28.792  23.264  27.268  1.00  0.00    +0.000 C 
ATOM     94  C71 UNL A   1      29.684  22.286  26.835  1.00  0.00    +0.000 C 
ATOM     95  C72 UNL A   1      30.810  22.644  26.088  1.00  0.00    +0.000 C 
ENDBRANCH   89   90
ENDBRANCH    4    3
ENDBRANCH    5    4
ENDBRANCH    7    5
ENDBRANCH    8    7
ENDBRANCH    9    8
ENDBRANCH   10    9
ENDBRANCH   11   10
ENDBRANCH   12   11
ENDBRANCH   13   12
ENDBRANCH   14   13
ENDBRANCH   15   14
ENDBRANCH   17   15
ENDBRANCH   21   20
BRANCH   25   26
ATOM     33  C25 UNL A   1      45.991  23.377  24.819  1.00  0.00    +0.000 C 
ATOM     34  F4  UNL A   1      46.970  23.850  24.035  1.00  0.00    +0.000 F 
ATOM     35  C26 UNL A   1      45.314  24.243  25.685  1.00  0.00    +0.000 C 
ATOM     36  F5  UNL A   1      45.585  25.550  25.564  1.00  0.00    +0.000 F 
ATOM     26  C21 UNL A   1      44.366  23.784  26.616  1.00  0.00    +0.000 C 
ATOM     27  C22 UNL A   1      43.995  22.430  26.464  1.00  0.00    +0.000 C 
ATOM     28  F1  UNL A   1      43.009  21.885  27.187  1.00  0.00    +0.000 F 
ATOM     29  C23 UNL A   1      44.631  21.574  25.561  1.00  0.00    +0.000 C 
ATOM     30  F2  UNL A   1      44.251  20.291  25.480  1.00  0.00    +0.000 F 
ATOM     31  C24 UNL A   1      45.662  22.038  24.771  1.00  0.00    +0.000 C 
ATOM     32  F3  UNL A   1      46.316  21.203  23.951  1.00  0.00    +0.000 F 
ENDBRANCH   25   26
BRANCH   42   43
ATOM     43  C32 UNL A   1      45.369  24.597  33.217  1.00  0.00    +0.000 C 
ATOM     44  C33 UNL A   1      46.626  24.601  33.843  1.00  0.00    +0.000 C 
ATOM     45  F6  UNL A   1      47.446  25.657  33.745  1.00  0.00    +0.000 F 
ATOM     46  C34 UNL A   1      47.057  23.536  34.637  1.00  0.00    +0.000 C 
ATOM     47  F7  UNL A   1      48.282  23.567  35.181  1.00  0.00    +0.000 F 
ATOM     48  C35 UNL A   1      46.222  22.461  34.886  1.00  0.00    +0.000 C 
ATOM     49  F8  UNL A   1      46.624  21.461  35.679  1.00  0.00    +0.000 F 
ATOM     50  C36 UNL A   1      44.960  22.441  34.326  1.00  0.00    +0.000 C 
ATOM     51  F9  UNL A   1      44.123  21.431  34.596  1.00  0.00    +0.000 F 
ATOM     52  C37 UNL A   1      44.547  23.480  33.493  1.00  0.00    +0.000 C 
ATOM     53  F10 UNL A   1      43.314  23.378  32.976  1.00  0.00    +0.000 F 
ENDBRANCH   42   43
BRANCH   57   58
ATOM     65  C45 UNL A   1      38.541  29.611  33.082  1.00  0.00    +0.000 C 
ATOM     66  F14 UNL A   1      37.575  28.683  33.068  1.00  0.00    +0.000 F 
ATOM     67  C46 UNL A   1      39.879  29.221  32.981  1.00  0.00    +0.000 C 
ATOM     68  F15 UNL A   1      40.159  27.915  32.861  1.00  0.00    +0.000 F 
ATOM     58  C41 UNL A   1      40.898  30.176  32.897  1.00  0.00    +0.000 C 
ATOM     59  C42 UNL A   1      40.535  31.530  33.009  1.00  0.00    +0.000 C 
ATOM     60  F11 UNL A   1      41.476  32.485  32.936  1.00  0.00    +0.000 F 
ATOM     61  C43 UNL A   1      39.200  31.917  33.100  1.00  0.00    +0.000 C 
ATOM     62  F12 UNL A   1      38.880  33.219  33.113  1.00  0.00    +0.000 F 
ATOM     63  C44 UNL A   1      38.202  30.957  33.112  1.00  0.00    +0.000 C 
ATOM     64  F13 UNL A   1      36.914  31.325  33.121  1.00  0.00    +0.000 F 
ENDBRANCH   57   58
TORSDOF 19
ENDMDL
MODEL 3
REMARK VINA RESULT:     -11.9     21.255     29.265
ROOT
ATOM     21  C17 UNL A   1      22.972  37.516  49.019  1.00  0.00    +0.000 C 
ATOM     22  C18 UNL A   1      21.553  37.279  49.350  1.00  0.00    +0.000 C 
ATOM     23  N3  UNL A   1      20.700  36.740  48.541  1.00  0.00    +0.000 N 
ATOM     24  C19 UNL A   1      19.449  36.886  49.094  1.00  0.00    +0.000 C 
ATOM     25  C20 UNL A   1      18.337  36.700  48.325  1.00  0.00    +0.000 C 
ATOM     37  C27 UNL A   1      18.684  36.338  46.955  1.00  0.00    +0.000 C 
ATOM     38  C28 UNL A   1      18.806  37.098  45.802  1.00  0.00    +0.000 C 
ATOM     39  C29 UNL A   1      19.494  36.328  44.838  1.00  0.00    +0.000 C 
ATOM     40  C30 UNL A   1      19.782  35.097  45.399  1.00  0.00    +0.000 C 
ATOM     41  N4  UNL A   1      19.261  35.104  46.679  1.00  0.00    +0.000 N 
ATOM     42  C31 UNL A   1      20.474  33.935  44.870  1.00  0.00    +0.000 C 
ATOM     54  C38 UNL A   1      21.811  34.104  44.666  1.00  0.00    +0.000 C 
ATOM     55  N5  UNL A   1      22.492  35.165  45.199  1.00  0.00    +0.000 N 
ATOM     56  C39 UNL A   1      23.758  35.045  44.916  1.00  0.00    +0.000 C 
ATOM     57  C40 UNL A   1      24.822  35.976  45.435  1.00  0.00    +0.000 C 
ATOM     69  C47 UNL A   1      24.353  37.184  45.858  1.00  0.00    +0.000 C 
ATOM     70  C48 UNL A   1      23.077  37.768  45.483  1.00  0.00    +0.000 C 
ATOM     71  C49 UNL A   1      22.430  38.060  46.620  1.00  0.00    +0.000 C 
ATOM     72  C50 UNL A   1      23.324  37.794  47.743  1.00  0.00    +0.000 C 
ATOM     73  N6  UNL A   1      24.619  37.681  47.168  1.00  0.00    +0.000 N 
ATOM     74  C51 UNL A   1      24.044  33.872  44.095  1.00  0.00    +0.000 C 
ATOM     75  C52 UNL A   1      22.820  33.335  43.962  1.00  0.00    +0.000 C 
ATOM     76  C53 UNL A   1      19.686  37.387  50.431  1.00  0.00    +0.000 C 
ATOM     77  C54 UNL A   1      20.986  37.617  50.648  1.00  0.00    +0.000 C 
ATOM    117  H22 UNL A   1      18.456  38.059  45.671  1.00  0.00    +0.000 H 
ATOM    118  H23 UNL A   1      19.739  36.631  43.883  1.00  0.00    +0.000 H 
ATOM    119  H24 UNL A   1      19.293  34.345  47.304  1.00  0.00    +0.000 H 
ATOM    120  H25 UNL A   1      22.734  37.927  44.523  1.00  0.00    +0.000 H 
ATOM    121  H26 UNL A   1      21.463  38.413  46.691  1.00  0.00    +0.000 H 
ATOM    122  H27 UNL A   1      25.489  37.894  47.576  1.00  0.00    +0.000 H 
ATOM    123  H28 UNL A   1      24.947  33.541  43.718  1.00  0.00    +0.000 H 
ATOM    124  H29 UNL A   1      22.620  32.479  43.422  1.00  0.00    +0.000 H 
ATOM    125  H30 UNL A   1      18.945  37.546  51.131  1.00  0.00    +0.000 H 
ATOM    126  H31 UNL A   1      21.459  37.948  51.504  1.00  0.00    +0.000 H 
ENDROOT
BRANCH   21   20
ATOM     78  C55 UNL A   1      24.472  38.750  50.487  1.00  0.00    +0.000 C 
ATOM     79  C56 UNL A   1      25.632  38.826  51.235  1.00  0.00    +0.000 C 
ATOM     17  C13 UNL A   1      26.384  37.669  51.435  1.00  0.00    +0.000 C 
ATOM     18  C14 UNL A   1      25.836  36.412  51.161  1.00  0.00    +0.000 C 
ATOM     19  C15 UNL A   1      24.626  36.330  50.474  1.00  0.00    +0.000 C 
ATOM    115  H20 UNL A   1      26.323  35.553  51.463  1.00  0.00    +0.000 H 
ATOM    116  H21 UNL A   1      24.193  35.412  50.285  1.00  0.00    +0.000 H 
ATOM     20  C16 UNL A   1      24.006  37.507  50.048  1.00  0.00    +0.000 C 
ATOM    127  H32 UNL A   1      23.950  39.609  50.253  1.00  0.00    +0.000 H 
ATOM    128  H33 UNL A   1      25.937  39.724  51.638  1.00  0.00    +0.000 H 
BRANCH   17   15
ATOM     15  C12 UNL A   1      27.828  37.740  51.765  1.00  0.00    +0.000 C 
ATOM     16  O2  UNL A   1      28.242  37.264  52.807  1.00  0.00    +0.000 O 
BRANCH   15   14
ATOM    114  H19 UNL A   1      28.287  38.657  50.030  1.00  0.00    +0.000 H 
ATOM     14  N2  UNL A   1      28.705  38.258  50.827  1.00  0.00    +0.000 N 
BRANCH   14   13
ATOM    113  H18 UNL A   1      30.501  37.287  50.742  1.00  0.00    +0.000 H 
ATOM     13  C11 UNL A   1      30.162  38.295  50.855  1.00  0.00    +0.000 C 
ATOM    112  H17 UNL A   1      30.470  38.729  51.784  1.00  0.00    +0.000 H 
BRANCH   13   12
ATOM     12  C10 UNL A   1      30.780  39.101  49.719  1.00  0.00    +0.000 C 
ATOM    110  H15 UNL A   1      30.197  39.988  49.583  1.00  0.00    +0.000 H 
ATOM    111  H16 UNL A   1      31.791  39.305  50.005  1.00  0.00    +0.000 H 
BRANCH   12   11
ATOM     11  C9  UNL A   1      30.844  38.358  48.380  1.00  0.00    +0.000 C 
ATOM    108  H13 UNL A   1      30.433  37.381  48.530  1.00  0.00    +0.000 H 
ATOM    109  H14 UNL A   1      30.299  38.969  47.691  1.00  0.00    +0.000 H 
BRANCH   11   10
ATOM     10  C8  UNL A   1      32.240  38.187  47.754  1.00  0.00    +0.000 C 
ATOM    107  H12 UNL A   1      32.219  38.770  46.857  1.00  0.00    +0.000 H 
ATOM    106  H11 UNL A   1      32.400  37.140  47.603  1.00  0.00    +0.000 H 
BRANCH   10    9
ATOM      9  C7  UNL A   1      33.427  38.728  48.562  1.00  0.00    +0.000 C 
ATOM    105  H10 UNL A   1      33.905  37.875  48.997  1.00  0.00    +0.000 H 
ATOM    104  H9  UNL A   1      33.047  39.420  49.285  1.00  0.00    +0.000 H 
BRANCH    9    8
ATOM    102  H7  UNL A   1      35.460  39.093  48.053  1.00  0.00    +0.000 H 
ATOM    103  H8  UNL A   1      34.315  39.224  46.709  1.00  0.00    +0.000 H 
ATOM      8  C6  UNL A   1      34.499  39.443  47.741  1.00  0.00    +0.000 C 
BRANCH    8    7
ATOM    101  H6  UNL A   1      35.314  41.311  48.114  1.00  0.00    +0.000 H 
ATOM      7  N1  UNL A   1      34.456  40.880  47.897  1.00  0.00    +0.000 N 
BRANCH    7    5
ATOM      5  C5  UNL A   1      33.385  41.723  47.786  1.00  0.00    +0.000 C 
ATOM      6  O1  UNL A   1      32.818  42.083  48.820  1.00  0.00    +0.000 O 
BRANCH    5    4
ATOM    100  H5  UNL A   1      33.738  42.143  45.759  1.00  0.00    +0.000 H 
ATOM     99  H4  UNL A   1      32.480  43.156  46.512  1.00  0.00    +0.000 H 
ATOM      4  C4  UNL A   1      32.892  42.174  46.415  1.00  0.00    +0.000 C 
BRANCH    4    3
ATOM    129  H34 UNL A   1      30.355  42.034  47.107  1.00  0.00    +0.000 H 
ATOM      2  C2  UNL A   1      32.093  40.340  44.767  1.00  0.00    +0.000 C 
ATOM      3  C3  UNL A   1      31.833  41.270  45.806  1.00  0.00    +0.000 C 
ATOM    135  H40 UNL A   1      28.950  39.178  44.396  1.00  0.00    +0.000 H 
ATOM     80  C57 UNL A   1      30.529  41.375  46.332  1.00  0.00    +0.000 C 
ATOM     81  C58 UNL A   1      29.465  40.615  45.840  1.00  0.00    +0.000 C 
ATOM     88  C65 UNL A   1      29.728  39.733  44.787  1.00  0.00    +0.000 C 
ATOM     89  C66 UNL A   1      31.019  39.574  44.238  1.00  0.00    +0.000 C 
BRANCH    2    1
ATOM      1  C1  UNL A   1      33.505  40.117  44.267  1.00  0.00    +0.000 C 
ATOM     98  H3  UNL A   1      33.487  39.435  43.443  1.00  0.00    +0.000 H 
ATOM     97  H2  UNL A   1      33.922  41.050  43.950  1.00  0.00    +0.000 H 
ATOM     96  H1  UNL A   1      34.102  39.708  45.055  1.00  0.00    +0.000 H 
ENDBRANCH    2    1
BRANCH   81   82
ATOM    130  H35 UNL A   1      28.766  40.920  48.427  1.00  0.00    +0.000 H 
ATOM    131  H36 UNL A   1      26.547  41.063  49.385  1.00  0.00    +0.000 H 
ATOM    132  H37 UNL A   1      24.594  40.957  47.951  1.00  0.00    +0.000 H 
ATOM    133  H38 UNL A   1      24.866  40.722  45.553  1.00  0.00    +0.000 H 
ATOM    134  H39 UNL A   1      27.082  40.587  44.589  1.00  0.00    +0.000 H 
ATOM     82  C59 UNL A   1      28.120  40.735  46.424  1.00  0.00    +0.000 C 
ATOM     83  C60 UNL A   1      27.941  40.876  47.810  1.00  0.00    +0.000 C 
ATOM     84  C61 UNL A   1      26.661  40.959  48.365  1.00  0.00    +0.000 C 
ATOM     85  C62 UNL A   1      25.539  40.900  47.542  1.00  0.00    +0.000 C 
ATOM     86  C63 UNL A   1      25.696  40.765  46.165  1.00  0.00    +0.000 C 
ATOM     87  C64 UNL A   1      26.976  40.685  45.611  1.00  0.00    +0.000 C 
ENDBRANCH   81   82
BRANCH   89   90
ATOM    136  H41 UNL A   1      31.734  40.116  41.708  1.00  0.00    +0.000 H 
ATOM    137  H42 UNL A   1      32.015  38.597  39.845  1.00  0.00    +0.000 H 
ATOM    138  H43 UNL A   1      31.643  36.219  40.150  1.00  0.00    +0.000 H 
ATOM    139  H44 UNL A   1      30.951  35.371  42.314  1.00  0.00    +0.000 H 
ATOM    140  H45 UNL A   1      30.626  36.892  44.171  1.00  0.00    +0.000 H 
ATOM     90  C67 UNL A   1      31.175  38.635  43.109  1.00  0.00    +0.000 C 
ATOM     91  C68 UNL A   1      31.565  39.107  41.843  1.00  0.00    +0.000 C 
ATOM     92  C69 UNL A   1      31.730  38.232  40.768  1.00  0.00    +0.000 C 
ATOM     93  C70 UNL A   1      31.511  36.868  40.942  1.00  0.00    +0.000 C 
ATOM     94  C71 UNL A   1      31.114  36.382  42.185  1.00  0.00    +0.000 C 
ATOM     95  C72 UNL A   1      30.936  37.260  43.258  1.00  0.00    +0.000 C 
ENDBRANCH   89   90
ENDBRANCH    4    3
ENDBRANCH    5    4
ENDBRANCH    7    5
ENDBRANCH    8    7
ENDBRANCH    9    8
ENDBRANCH   10    9
ENDBRANCH   11   10
ENDBRANCH   12   11
ENDBRANCH   13   12
ENDBRANCH   14   13
ENDBRANCH   15   14
ENDBRANCH   17   15
ENDBRANCH   21   20
BRANCH   25   26
ATOM     33  C25 UNL A   1      14.540  36.804  48.990  1.00  0.00    +0.000 C 
ATOM     34  F4  UNL A   1      13.460  36.060  48.709  1.00  0.00    +0.000 F 
ATOM     35  C26 UNL A   1      15.768  36.502  48.390  1.00  0.00    +0.000 C 
ATOM     36  F5  UNL A   1      15.756  35.565  47.431  1.00  0.00    +0.000 F 
ATOM     26  C21 UNL A   1      16.957  37.166  48.737  1.00  0.00    +0.000 C 
ATOM     27  C22 UNL A   1      16.783  38.293  49.571  1.00  0.00    +0.000 C 
ATOM     28  F1  UNL A   1      17.802  39.104  49.879  1.00  0.00    +0.000 F 
ATOM     29  C23 UNL A   1      15.548  38.631  50.129  1.00  0.00    +0.000 C 
ATOM     30  F2  UNL A   1      15.451  39.700  50.933  1.00  0.00    +0.000 F 
ATOM     31  C24 UNL A   1      14.435  37.857  49.875  1.00  0.00    +0.000 C 
ATOM     32  F3  UNL A   1      13.263  38.142  50.461  1.00  0.00    +0.000 F 
ENDBRANCH   25   26
BRANCH   42   43
ATOM     43  C32 UNL A   1      19.684  32.711  44.499  1.00  0.00    +0.000 C 
ATOM     44  C33 UNL A   1      18.739  32.684  43.461  1.00  0.00    +0.000 C 
ATOM     45  F6  UNL A   1      18.472  33.780  42.737  1.00  0.00    +0.000 F 
ATOM     46  C34 UNL A   1      18.076  31.508  43.098  1.00  0.00    +0.000 C 
ATOM     47  F7  UNL A   1      17.152  31.540  42.128  1.00  0.00    +0.000 F 
ATOM     48  C35 UNL A   1      18.383  30.309  43.716  1.00  0.00    +0.000 C 
ATOM     49  F8  UNL A   1      17.773  29.178  43.339  1.00  0.00    +0.000 F 
ATOM     50  C36 UNL A   1      19.340  30.286  44.711  1.00  0.00    +0.000 C 
ATOM     51  F9  UNL A   1      19.681  29.125  45.285  1.00  0.00    +0.000 F 
ATOM     52  C37 UNL A   1      19.966  31.467  45.108  1.00  0.00    +0.000 C 
ATOM     53  F10 UNL A   1      20.872  31.361  46.091  1.00  0.00    +0.000 F 
ENDBRANCH   42   43
BRANCH   57   58
ATOM     65  C45 UNL A   1      27.126  34.773  48.171  1.00  0.00    +0.000 C 
ATOM     66  F14 UNL A   1      27.031  34.177  49.368  1.00  0.00    +0.000 F 
ATOM     67  C46 UNL A   1      26.009  34.831  47.335  1.00  0.00    +0.000 C 
ATOM     68  F15 UNL A   1      24.859  34.290  47.762  1.00  0.00    +0.000 F 
ATOM     58  C41 UNL A   1      26.058  35.530  46.124  1.00  0.00    +0.000 C 
ATOM     59  C42 UNL A   1      27.289  36.091  45.743  1.00  0.00    +0.000 C 
ATOM     60  F11 UNL A   1      27.389  36.772  44.590  1.00  0.00    +0.000 F 
ATOM     61  C43 UNL A   1      28.399  36.041  46.584  1.00  0.00    +0.000 C 
ATOM     62  F12 UNL A   1      29.533  36.665  46.234  1.00  0.00    +0.000 F 
ATOM     63  C44 UNL A   1      28.309  35.402  47.809  1.00  0.00    +0.000 C 
ATOM     64  F13 UNL A   1      29.348  35.418  48.654  1.00  0.00    +0.000 F 
ENDBRANCH   57   58
TORSDOF 19
ENDMDL
MODEL 4
REMARK VINA RESULT:     -11.9     38.737     45.916
ROOT
ATOM     21  C17 UNL A   1      10.587  31.978  -3.243  1.00  0.00    +0.000 C 
ATOM     22  C18 UNL A   1      11.940  31.572  -2.811  1.00  0.00    +0.000 C 
ATOM     23  N3  UNL A   1      12.213  31.090  -1.642  1.00  0.00    +0.000 N 
ATOM     24  C19 UNL A   1      13.583  31.042  -1.521  1.00  0.00    +0.000 C 
ATOM     25  C20 UNL A   1      14.153  30.879  -0.291  1.00  0.00    +0.000 C 
ATOM     37  C27 UNL A   1      13.147  30.762   0.758  1.00  0.00    +0.000 C 
ATOM     38  C28 UNL A   1      12.606  31.695   1.628  1.00  0.00    +0.000 C 
ATOM     39  C29 UNL A   1      11.436  31.143   2.196  1.00  0.00    +0.000 C 
ATOM     40  C30 UNL A   1      11.269  29.871   1.679  1.00  0.00    +0.000 C 
ATOM     41  N4  UNL A   1      12.331  29.638   0.826  1.00  0.00    +0.000 N 
ATOM     42  C31 UNL A   1      10.244  28.866   1.903  1.00  0.00    +0.000 C 
ATOM     54  C38 UNL A   1       9.013  29.179   1.408  1.00  0.00    +0.000 C 
ATOM     55  N5  UNL A   1       8.835  30.202   0.515  1.00  0.00    +0.000 N 
ATOM     56  C39 UNL A   1       7.585  30.236   0.150  1.00  0.00    +0.000 C 
ATOM     57  C40 UNL A   1       7.049  31.166  -0.907  1.00  0.00    +0.000 C 
ATOM     69  C47 UNL A   1       7.837  32.250  -1.153  1.00  0.00    +0.000 C 
ATOM     70  C48 UNL A   1       8.852  32.772  -0.254  1.00  0.00    +0.000 C 
ATOM     71  C49 UNL A   1       9.998  32.831  -0.948  1.00  0.00    +0.000 C 
ATOM     72  C50 UNL A   1       9.717  32.476  -2.336  1.00  0.00    +0.000 C 
ATOM     73  N6  UNL A   1       8.304  32.564  -2.463  1.00  0.00    +0.000 N 
ATOM     74  C51 UNL A   1       6.771  29.230   0.826  1.00  0.00    +0.000 C 
ATOM     75  C52 UNL A   1       7.689  28.616   1.592  1.00  0.00    +0.000 C 
ATOM     76  C53 UNL A   1      14.088  31.353  -2.841  1.00  0.00    +0.000 C 
ATOM     77  C54 UNL A   1      13.100  31.659  -3.688  1.00  0.00    +0.000 C 
ATOM    117  H22 UNL A   1      12.991  32.631   1.827  1.00  0.00    +0.000 H 
ATOM    118  H23 UNL A   1      10.814  31.607   2.875  1.00  0.00    +0.000 H 
ATOM    119  H24 UNL A   1      12.487  28.798   0.337  1.00  0.00    +0.000 H 
ATOM    120  H25 UNL A   1       8.716  33.045   0.732  1.00  0.00    +0.000 H 
ATOM    121  H26 UNL A   1      10.922  33.085  -0.566  1.00  0.00    +0.000 H 
ATOM    122  H27 UNL A   1       7.776  32.786  -3.263  1.00  0.00    +0.000 H 
ATOM    123  H28 UNL A   1       5.760  29.040   0.740  1.00  0.00    +0.000 H 
ATOM    124  H29 UNL A   1       7.478  27.837   2.235  1.00  0.00    +0.000 H 
ATOM    125  H30 UNL A   1      15.088  31.340  -3.097  1.00  0.00    +0.000 H 
ATOM    126  H31 UNL A   1      13.146  31.895  -4.691  1.00  0.00    +0.000 H 
ENDROOT
BRANCH   21   20
ATOM     78  C55 UNL A   1      10.153  33.103  -5.358  1.00  0.00    +0.000 C 
ATOM     79  C56 UNL A   1       9.513  33.160  -6.582  1.00  0.00    +0.000 C 
ATOM     17  C13 UNL A   1       8.799  32.047  -7.024  1.00  0.00    +0.000 C 
ATOM     18  C14 UNL A   1       8.973  30.803  -6.409  1.00  0.00    +0.000 C 
ATOM     19  C15 UNL A   1       9.686  30.727  -5.213  1.00  0.00    +0.000 C 
ATOM    115  H20 UNL A   1       8.578  29.950  -6.835  1.00  0.00    +0.000 H 
ATOM    116  H21 UNL A   1       9.846  29.815  -4.757  1.00  0.00    +0.000 H 
ATOM     20  C16 UNL A   1      10.180  31.902  -4.641  1.00  0.00    +0.000 C 
ATOM    127  H32 UNL A   1      10.611  33.944  -4.974  1.00  0.00    +0.000 H 
ATOM    128  H33 UNL A   1       9.563  34.012  -7.160  1.00  0.00    +0.000 H 
BRANCH   17   15
ATOM     15  C12 UNL A   1       7.712  32.181  -8.024  1.00  0.00    +0.000 C 
ATOM     16  O2  UNL A   1       7.741  31.525  -9.050  1.00  0.00    +0.000 O 
BRANCH   15   14
ATOM    114  H19 UNL A   1       6.135  32.739  -6.902  1.00  0.00    +0.000 H 
ATOM     14  N2  UNL A   1       6.620  32.977  -7.724  1.00  0.00    +0.000 N 
BRANCH   14   13
ATOM    113  H18 UNL A   1       5.134  34.347  -8.028  1.00  0.00    +0.000 H 
ATOM     13  C11 UNL A   1       6.088  34.119  -8.457  1.00  0.00    +0.000 C 
ATOM    112  H17 UNL A   1       6.019  33.853  -9.492  1.00  0.00    +0.000 H 
BRANCH   13   12
ATOM     12  C10 UNL A   1       6.939  35.377  -8.341  1.00  0.00    +0.000 C 
ATOM    110  H15 UNL A   1       7.228  35.491  -7.317  1.00  0.00    +0.000 H 
ATOM    111  H16 UNL A   1       7.773  35.244  -8.998  1.00  0.00    +0.000 H 
BRANCH   12   11
ATOM     11  C9  UNL A   1       6.231  36.662  -8.786  1.00  0.00    +0.000 C 
ATOM    108  H13 UNL A   1       6.196  37.322  -7.944  1.00  0.00    +0.000 H 
ATOM    109  H14 UNL A   1       6.801  37.026  -9.615  1.00  0.00    +0.000 H 
BRANCH   11   10
ATOM     10  C8  UNL A   1       4.794  36.507  -9.317  1.00  0.00    +0.000 C 
ATOM    107  H12 UNL A   1       4.236  36.091  -8.504  1.00  0.00    +0.000 H 
ATOM    106  H11 UNL A   1       4.837  35.891 -10.191  1.00  0.00    +0.000 H 
BRANCH   10    9
ATOM      9  C7  UNL A   1       4.057  37.799  -9.694  1.00  0.00    +0.000 C 
ATOM    105  H10 UNL A   1       4.567  38.195 -10.547  1.00  0.00    +0.000 H 
ATOM    104  H9  UNL A   1       4.076  38.451  -8.845  1.00  0.00    +0.000 H 
BRANCH    9    8
ATOM    102  H7  UNL A   1       2.111  38.566 -10.083  1.00  0.00    +0.000 H 
ATOM    103  H8  UNL A   1       2.600  37.205 -11.105  1.00  0.00    +0.000 H 
ATOM      8  C6  UNL A   1       2.600  37.616 -10.117  1.00  0.00    +0.000 C 
BRANCH    8    7
ATOM    101  H6  UNL A   1       2.272  35.794  -9.185  1.00  0.00    +0.000 H 
ATOM      7  N1  UNL A   1       1.882  36.695  -9.262  1.00  0.00    +0.000 N 
BRANCH    7    5
ATOM      5  C5  UNL A   1       0.737  36.905  -8.547  1.00  0.00    +0.000 C 
ATOM      6  O1  UNL A   1      -0.341  36.852  -9.144  1.00  0.00    +0.000 O 
BRANCH    5    4
ATOM    100  H5  UNL A   1       0.750  36.295  -6.538  1.00  0.00    +0.000 H 
ATOM     99  H4  UNL A   1      -0.014  37.880  -6.819  1.00  0.00    +0.000 H 
ATOM      4  C4  UNL A   1       0.800  37.229  -7.058  1.00  0.00    +0.000 C 
BRANCH    4    3
ATOM    129  H34 UNL A   1       2.940  36.047  -6.078  1.00  0.00    +0.000 H 
ATOM      2  C2  UNL A   1       2.304  39.305  -6.668  1.00  0.00    +0.000 C 
ATOM      3  C3  UNL A   1       2.091  37.903  -6.622  1.00  0.00    +0.000 C 
ATOM    135  H40 UNL A   1       5.481  39.323  -5.541  1.00  0.00    +0.000 H 
ATOM     80  C57 UNL A   1       3.114  37.063  -6.135  1.00  0.00    +0.000 C 
ATOM     81  C58 UNL A   1       4.354  37.560  -5.727  1.00  0.00    +0.000 C 
ATOM     88  C65 UNL A   1       4.564  38.940  -5.819  1.00  0.00    +0.000 C 
ATOM     89  C66 UNL A   1       3.567  39.827  -6.279  1.00  0.00    +0.000 C 
BRANCH    2    1
ATOM      1  C1  UNL A   1       1.184  40.242  -7.069  1.00  0.00    +0.000 C 
ATOM     98  H3  UNL A   1       0.350  39.671  -7.418  1.00  0.00    +0.000 H 
ATOM     97  H2  UNL A   1       0.888  40.826  -6.222  1.00  0.00    +0.000 H 
ATOM     96  H1  UNL A   1       1.524  40.891  -7.849  1.00  0.00    +0.000 H 
ENDBRANCH    2    1
BRANCH   81   82
ATOM    130  H35 UNL A   1       6.900  38.128  -5.039  1.00  0.00    +0.000 H 
ATOM    131  H36 UNL A   1       8.618  36.624  -4.234  1.00  0.00    +0.000 H 
ATOM    132  H37 UNL A   1       8.129  34.268  -3.933  1.00  0.00    +0.000 H 
ATOM    133  H38 UNL A   1       5.911  33.421  -4.426  1.00  0.00    +0.000 H 
ATOM    134  H39 UNL A   1       4.186  34.922  -5.222  1.00  0.00    +0.000 H 
ATOM     82  C59 UNL A   1       5.393  36.657  -5.207  1.00  0.00    +0.000 C 
ATOM     83  C60 UNL A   1       6.682  37.128  -4.912  1.00  0.00    +0.000 C 
ATOM     84  C61 UNL A   1       7.676  36.262  -4.447  1.00  0.00    +0.000 C 
ATOM     85  C62 UNL A   1       7.395  34.909  -4.272  1.00  0.00    +0.000 C 
ATOM     86  C63 UNL A   1       6.121  34.423  -4.556  1.00  0.00    +0.000 C 
ATOM     87  C64 UNL A   1       5.128  35.290  -5.017  1.00  0.00    +0.000 C 
ENDBRANCH   81   82
BRANCH   89   90
ATOM    136  H41 UNL A   1       4.354  41.230  -8.428  1.00  0.00    +0.000 H 
ATOM    137  H42 UNL A   1       4.902  43.582  -8.595  1.00  0.00    +0.000 H 
ATOM    138  H43 UNL A   1       4.761  45.004  -6.635  1.00  0.00    +0.000 H 
ATOM    139  H44 UNL A   1       4.108  44.059  -4.499  1.00  0.00    +0.000 H 
ATOM    140  H45 UNL A   1       3.600  41.698  -4.316  1.00  0.00    +0.000 H 
ATOM     90  C67 UNL A   1       3.909  41.261  -6.361  1.00  0.00    +0.000 C 
ATOM     91  C68 UNL A   1       4.300  41.827  -7.588  1.00  0.00    +0.000 C 
ATOM     92  C69 UNL A   1       4.614  43.184  -7.687  1.00  0.00    +0.000 C 
ATOM     93  C70 UNL A   1       4.539  43.999  -6.560  1.00  0.00    +0.000 C 
ATOM     94  C71 UNL A   1       4.163  43.456  -5.334  1.00  0.00    +0.000 C 
ATOM     95  C72 UNL A   1       3.862  42.095  -5.232  1.00  0.00    +0.000 C 
ENDBRANCH   89   90
ENDBRANCH    4    3
ENDBRANCH    5    4
ENDBRANCH    7    5
ENDBRANCH    8    7
ENDBRANCH    9    8
ENDBRANCH   10    9
ENDBRANCH   11   10
ENDBRANCH   12   11
ENDBRANCH   13   12
ENDBRANCH   14   13
ENDBRANCH   15   14
ENDBRANCH   17   15
ENDBRANCH   21   20
BRANCH   25   26
ATOM     33  C25 UNL A   1      17.399  32.280   1.249  1.00  0.00    +0.000 C 
ATOM     34  F4  UNL A   1      17.754  33.231   2.125  1.00  0.00    +0.000 F 
ATOM     35  C26 UNL A   1      16.073  32.203   0.807  1.00  0.00    +0.000 C 
ATOM     36  F5  UNL A   1      15.256  33.201   1.173  1.00  0.00    +0.000 F 
ATOM     26  C21 UNL A   1      15.615  31.157  -0.013  1.00  0.00    +0.000 C 
ATOM     27  C22 UNL A   1      16.630  30.319  -0.526  1.00  0.00    +0.000 C 
ATOM     28  F1  UNL A   1      16.366  29.363  -1.424  1.00  0.00    +0.000 F 
ATOM     29  C23 UNL A   1      17.965  30.428  -0.129  1.00  0.00    +0.000 C 
ATOM     30  F2  UNL A   1      18.881  29.587  -0.633  1.00  0.00    +0.000 F 
ATOM     31  C24 UNL A   1      18.341  31.380   0.796  1.00  0.00    +0.000 C 
ATOM     32  F3  UNL A   1      19.609  31.444   1.226  1.00  0.00    +0.000 F 
ENDBRANCH   25   26
BRANCH   42   43
ATOM     43  C32 UNL A   1      10.570  27.649   2.723  1.00  0.00    +0.000 C 
ATOM     44  C33 UNL A   1      10.115  27.456   4.037  1.00  0.00    +0.000 C 
ATOM     45  F6  UNL A   1       9.361  28.378   4.653  1.00  0.00    +0.000 F 
ATOM     46  C34 UNL A   1      10.378  26.279   4.743  1.00  0.00    +0.000 C 
ATOM     47  F7  UNL A   1       9.958  26.157   6.010  1.00  0.00    +0.000 F 
ATOM     48  C35 UNL A   1      11.048  25.231   4.137  1.00  0.00    +0.000 C 
ATOM     49  F8  UNL A   1      11.264  24.091   4.804  1.00  0.00    +0.000 F 
ATOM     50  C36 UNL A   1      11.471  25.364   2.830  1.00  0.00    +0.000 C 
ATOM     51  F9  UNL A   1      12.078  24.341   2.214  1.00  0.00    +0.000 F 
ATOM     52  C37 UNL A   1      11.252  26.557   2.141  1.00  0.00    +0.000 C 
ATOM     53  F10 UNL A   1      11.709  26.611   0.881  1.00  0.00    +0.000 F 
ENDBRANCH   42   43
BRANCH   57   58
ATOM     65  C45 UNL A   1       6.170  29.722  -4.282  1.00  0.00    +0.000 C 
ATOM     66  F14 UNL A   1       6.720  28.911  -5.196  1.00  0.00    +0.000 F 
ATOM     67  C46 UNL A   1       6.738  29.818  -3.009  1.00  0.00    +0.000 C 
ATOM     68  F15 UNL A   1       7.834  29.095  -2.739  1.00  0.00    +0.000 F 
ATOM     58  C41 UNL A   1       6.239  30.728  -2.071  1.00  0.00    +0.000 C 
ATOM     59  C42 UNL A   1       5.099  31.471  -2.423  1.00  0.00    +0.000 C 
ATOM     60  F11 UNL A   1       4.581  32.358  -1.558  1.00  0.00    +0.000 F 
ATOM     61  C43 UNL A   1       4.541  31.381  -3.697  1.00  0.00    +0.000 C 
ATOM     62  F12 UNL A   1       3.510  32.170  -4.033  1.00  0.00    +0.000 F 
ATOM     63  C44 UNL A   1       5.092  30.523  -4.633  1.00  0.00    +0.000 C 
ATOM     64  F13 UNL A   1       4.608  30.489  -5.881  1.00  0.00    +0.000 F 
ENDBRANCH   57   58
TORSDOF 19
ENDMDL
MODEL 5
REMARK VINA RESULT:     -11.7     32.497     39.003
ROOT
ATOM     21  C17 UNL A   1       8.825   3.417  26.869  1.00  0.00    +0.000 C 
ATOM     22  C18 UNL A   1       8.081   4.275  25.926  1.00  0.00    +0.000 C 
ATOM     23  N3  UNL A   1       8.005   5.563  26.023  1.00  0.00    +0.000 N 
ATOM     24  C19 UNL A   1       7.059   5.994  25.121  1.00  0.00    +0.000 C 
ATOM     25  C20 UNL A   1       6.544   7.255  25.225  1.00  0.00    +0.000 C 
ATOM     37  C27 UNL A   1       7.132   7.987  26.340  1.00  0.00    +0.000 C 
ATOM     38  C28 UNL A   1       6.702   8.189  27.642  1.00  0.00    +0.000 C 
ATOM     39  C29 UNL A   1       7.794   8.670  28.398  1.00  0.00    +0.000 C 
ATOM     40  C30 UNL A   1       8.887   8.770  27.555  1.00  0.00    +0.000 C 
ATOM     41  N4  UNL A   1       8.465   8.378  26.299  1.00  0.00    +0.000 N 
ATOM     42  C31 UNL A   1      10.254   9.194  27.797  1.00  0.00    +0.000 C 
ATOM     54  C38 UNL A   1      10.990   8.351  28.575  1.00  0.00    +0.000 C 
ATOM     55  N5  UNL A   1      10.574   7.074  28.846  1.00  0.00    +0.000 N 
ATOM     56  C39 UNL A   1      11.492   6.466  29.543  1.00  0.00    +0.000 C 
ATOM     57  C40 UNL A   1      11.421   5.012  29.928  1.00  0.00    +0.000 C 
ATOM     69  C47 UNL A   1      10.167   4.480  29.882  1.00  0.00    +0.000 C 
ATOM     70  C48 UNL A   1       8.930   5.241  29.909  1.00  0.00    +0.000 C 
ATOM     71  C49 UNL A   1       8.219   4.871  28.834  1.00  0.00    +0.000 C 
ATOM     72  C50 UNL A   1       8.920   3.777  28.169  1.00  0.00    +0.000 C 
ATOM     73  N6  UNL A   1       9.869   3.312  29.120  1.00  0.00    +0.000 N 
ATOM     74  C51 UNL A   1      12.629   7.328  29.854  1.00  0.00    +0.000 C 
ATOM     75  C52 UNL A   1      12.269   8.472  29.248  1.00  0.00    +0.000 C 
ATOM     76  C53 UNL A   1       6.738   4.828  24.327  1.00  0.00    +0.000 C 
ATOM     77  C54 UNL A   1       7.375   3.739  24.770  1.00  0.00    +0.000 C 
ATOM    117  H22 UNL A   1       5.749   8.018  27.998  1.00  0.00    +0.000 H 
ATOM    118  H23 UNL A   1       7.780   8.904  29.402  1.00  0.00    +0.000 H 
ATOM    119  H24 UNL A   1       9.028   8.376  25.491  1.00  0.00    +0.000 H 
ATOM    120  H25 UNL A   1       8.652   5.935  30.620  1.00  0.00    +0.000 H 
ATOM    121  H26 UNL A   1       7.327   5.290  28.527  1.00  0.00    +0.000 H 
ATOM    122  H27 UNL A   1      10.233   2.404  29.225  1.00  0.00    +0.000 H 
ATOM    123  H28 UNL A   1      13.482   7.115  30.395  1.00  0.00    +0.000 H 
ATOM    124  H29 UNL A   1      12.835   9.335  29.261  1.00  0.00    +0.000 H 
ATOM    125  H30 UNL A   1       6.097   4.836  23.518  1.00  0.00    +0.000 H 
ATOM    126  H31 UNL A   1       7.367   2.777  24.396  1.00  0.00    +0.000 H 
ENDROOT
BRANCH   21   20
ATOM     78  C55 UNL A   1       9.016   1.003  27.118  1.00  0.00    +0.000 C 
ATOM     79  C56 UNL A   1       9.734  -0.169  26.974  1.00  0.00    +0.000 C 
ATOM     17  C13 UNL A   1      10.926  -0.148  26.252  1.00  0.00    +0.000 C 
ATOM     18  C14 UNL A   1      11.238   0.942  25.433  1.00  0.00    +0.000 C 
ATOM     19  C15 UNL A   1      10.468   2.101  25.517  1.00  0.00    +0.000 C 
ATOM    115  H20 UNL A   1      12.030   0.889  24.772  1.00  0.00    +0.000 H 
ATOM    116  H21 UNL A   1      10.668   2.907  24.903  1.00  0.00    +0.000 H 
ATOM     20  C16 UNL A   1       9.424   2.157  26.442  1.00  0.00    +0.000 C 
ATOM    127  H32 UNL A   1       8.180   1.026  27.723  1.00  0.00    +0.000 H 
ATOM    128  H33 UNL A   1       9.395  -1.047  27.395  1.00  0.00    +0.000 H 
BRANCH   17   15
ATOM     15  C12 UNL A   1      11.972  -1.177  26.466  1.00  0.00    +0.000 C 
ATOM     16  O2  UNL A   1      13.138  -0.847  26.591  1.00  0.00    +0.000 O 
BRANCH   15   14
ATOM    114  H19 UNL A   1      11.544  -2.815  27.556  1.00  0.00    +0.000 H 
ATOM     14  N2  UNL A   1      11.590  -2.498  26.626  1.00  0.00    +0.000 N 
BRANCH   14   13
ATOM    113  H18 UNL A   1      10.468  -4.094  26.018  1.00  0.00    +0.000 H 
ATOM     13  C11 UNL A   1      11.246  -3.483  25.609  1.00  0.00    +0.000 C 
ATOM    112  H17 UNL A   1      12.126  -4.045  25.372  1.00  0.00    +0.000 H 
BRANCH   13   12
ATOM     12  C10 UNL A   1      10.702  -2.876  24.322  1.00  0.00    +0.000 C 
ATOM    110  H15 UNL A   1       9.635  -2.941  24.346  1.00  0.00    +0.000 H 
ATOM    111  H16 UNL A   1      11.058  -1.868  24.285  1.00  0.00    +0.000 H 
BRANCH   12   11
ATOM     11  C9  UNL A   1      11.196  -3.562  23.043  1.00  0.00    +0.000 C 
ATOM    108  H13 UNL A   1      11.507  -2.797  22.362  1.00  0.00    +0.000 H 
ATOM    109  H14 UNL A   1      11.978  -4.222  23.359  1.00  0.00    +0.000 H 
BRANCH   11   10
ATOM     10  C8  UNL A   1      10.183  -4.457  22.307  1.00  0.00    +0.000 C 
ATOM    107  H12 UNL A   1      10.708  -5.368  22.102  1.00  0.00    +0.000 H 
ATOM    106  H11 UNL A   1       9.853  -3.927  21.438  1.00  0.00    +0.000 H 
BRANCH   10    9
ATOM      9  C7  UNL A   1       8.936  -4.879  23.096  1.00  0.00    +0.000 C 
ATOM    105  H10 UNL A   1       8.339  -3.997  23.202  1.00  0.00    +0.000 H 
ATOM    104  H9  UNL A   1       9.259  -5.289  24.031  1.00  0.00    +0.000 H 
BRANCH    9    8
ATOM    102  H7  UNL A   1       8.643  -6.462  21.705  1.00  0.00    +0.000 H 
ATOM    103  H8  UNL A   1       7.644  -6.550  23.165  1.00  0.00    +0.000 H 
ATOM      8  C6  UNL A   1       8.049  -5.914  22.406  1.00  0.00    +0.000 C 
BRANCH    8    7
ATOM    101  H6  UNL A   1       6.043  -5.591  22.002  1.00  0.00    +0.000 H 
ATOM      7  N1  UNL A   1       6.938  -5.314  21.700  1.00  0.00    +0.000 N 
BRANCH    7    5
ATOM      5  C5  UNL A   1       6.961  -4.415  20.670  1.00  0.00    +0.000 C 
ATOM      6  O1  UNL A   1       7.573  -4.720  19.645  1.00  0.00    +0.000 O 
BRANCH    5    4
ATOM    100  H5  UNL A   1       5.304  -3.249  21.225  1.00  0.00    +0.000 H 
ATOM     99  H4  UNL A   1       6.224  -2.608  19.839  1.00  0.00    +0.000 H 
ATOM      4  C4  UNL A   1       6.272  -3.061  20.807  1.00  0.00    +0.000 C 
BRANCH    4    3
ATOM    129  H34 UNL A   1       5.711  -2.655  23.348  1.00  0.00    +0.000 H 
ATOM      2  C2  UNL A   1       8.043  -1.251  21.359  1.00  0.00    +0.000 C 
ATOM      3  C3  UNL A   1       6.974  -2.098  21.750  1.00  0.00    +0.000 C 
ATOM    135  H40 UNL A   1       8.621   0.170  24.362  1.00  0.00    +0.000 H 
ATOM     80  C57 UNL A   1       6.508  -2.056  23.080  1.00  0.00    +0.000 C 
ATOM     81  C58 UNL A   1       7.086  -1.230  24.046  1.00  0.00    +0.000 C 
ATOM     88  C65 UNL A   1       8.167  -0.431  23.656  1.00  0.00    +0.000 C 
ATOM     89  C66 UNL A   1       8.660  -0.420  22.334  1.00  0.00    +0.000 C 
BRANCH    2    1
ATOM      1  C1  UNL A   1       8.485  -1.184  19.913  1.00  0.00    +0.000 C 
ATOM     98  H3  UNL A   1       8.457  -0.168  19.579  1.00  0.00    +0.000 H 
ATOM     97  H2  UNL A   1       9.483  -1.561  19.827  1.00  0.00    +0.000 H 
ATOM     96  H1  UNL A   1       7.827  -1.775  19.311  1.00  0.00    +0.000 H 
ENDBRANCH    2    1
BRANCH   81   82
ATOM    130  H35 UNL A   1       5.595   0.673  25.242  1.00  0.00    +0.000 H 
ATOM    131  H36 UNL A   1       4.782   0.743  27.522  1.00  0.00    +0.000 H 
ATOM    132  H37 UNL A   1       5.274  -1.078  29.046  1.00  0.00    +0.000 H 
ATOM    133  H38 UNL A   1       6.569  -2.979  28.279  1.00  0.00    +0.000 H 
ATOM    134  H39 UNL A   1       7.377  -3.059  25.998  1.00  0.00    +0.000 H 
ATOM     82  C59 UNL A   1       6.562  -1.196  25.420  1.00  0.00    +0.000 C 
ATOM     83  C60 UNL A   1       5.807  -0.107  25.883  1.00  0.00    +0.000 C 
ATOM     84  C61 UNL A   1       5.336  -0.064  27.199  1.00  0.00    +0.000 C 
ATOM     85  C62 UNL A   1       5.617  -1.111  28.073  1.00  0.00    +0.000 C 
ATOM     86  C63 UNL A   1       6.362  -2.202  27.632  1.00  0.00    +0.000 C 
ATOM     87  C64 UNL A   1       6.829  -2.245  26.316  1.00  0.00    +0.000 C 
ENDBRANCH   81   82
BRANCH   89   90
ATOM    136  H41 UNL A   1       8.713   2.237  21.956  1.00  0.00    +0.000 H 
ATOM    137  H42 UNL A   1      10.607   3.673  21.495  1.00  0.00    +0.000 H 
ATOM    138  H43 UNL A   1      12.835   2.729  21.330  1.00  0.00    +0.000 H 
ATOM    139  H44 UNL A   1      13.158   0.340  21.588  1.00  0.00    +0.000 H 
ATOM    140  H45 UNL A   1      11.263  -1.108  22.007  1.00  0.00    +0.000 H 
ATOM     90  C67 UNL A   1       9.824   0.441  22.042  1.00  0.00    +0.000 C 
ATOM     91  C68 UNL A   1       9.657   1.827  21.878  1.00  0.00    +0.000 C 
ATOM     92  C69 UNL A   1      10.748   2.658  21.614  1.00  0.00    +0.000 C 
ATOM     93  C70 UNL A   1      12.026   2.115  21.514  1.00  0.00    +0.000 C 
ATOM     94  C71 UNL A   1      12.212   0.743  21.663  1.00  0.00    +0.000 C 
ATOM     95  C72 UNL A   1      11.118  -0.090  21.914  1.00  0.00    +0.000 C 
ENDBRANCH   89   90
ENDBRANCH    4    3
ENDBRANCH    5    4
ENDBRANCH    7    5
ENDBRANCH    8    7
ENDBRANCH    9    8
ENDBRANCH   10    9
ENDBRANCH   11   10
ENDBRANCH   12   11
ENDBRANCH   13   12
ENDBRANCH   14   13
ENDBRANCH   15   14
ENDBRANCH   17   15
ENDBRANCH   21   20
BRANCH   25   26
ATOM     33  C25 UNL A   1       2.962   8.508  24.541  1.00  0.00    +0.000 C 
ATOM     34  F4  UNL A   1       1.843   8.751  25.239  1.00  0.00    +0.000 F 
ATOM     35  C26 UNL A   1       4.040   7.863  25.158  1.00  0.00    +0.000 C 
ATOM     36  F5  UNL A   1       3.828   7.378  26.389  1.00  0.00    +0.000 F 
ATOM     26  C21 UNL A   1       5.279   7.692  24.517  1.00  0.00    +0.000 C 
ATOM     27  C22 UNL A   1       5.286   8.023  23.144  1.00  0.00    +0.000 C 
ATOM     28  F1  UNL A   1       6.351   7.789  22.368  1.00  0.00    +0.000 F 
ATOM     29  C23 UNL A   1       4.191   8.617  22.509  1.00  0.00    +0.000 C 
ATOM     30  F2  UNL A   1       4.266   8.930  21.207  1.00  0.00    +0.000 F 
ATOM     31  C24 UNL A   1       3.045   8.902  23.221  1.00  0.00    +0.000 C 
ATOM     32  F3  UNL A   1       2.018   9.529  22.630  1.00  0.00    +0.000 F 
ENDBRANCH   25   26
BRANCH   42   43
ATOM     43  C32 UNL A   1      10.715  10.530  27.282  1.00  0.00    +0.000 C 
ATOM     44  C33 UNL A   1      11.320  10.710  26.029  1.00  0.00    +0.000 C 
ATOM     45  F6  UNL A   1      11.539   9.673  25.209  1.00  0.00    +0.000 F 
ATOM     46  C34 UNL A   1      11.670  11.978  25.555  1.00  0.00    +0.000 C 
ATOM     47  F7  UNL A   1      12.282  12.096  24.368  1.00  0.00    +0.000 F 
ATOM     48  C35 UNL A   1      11.368  13.110  26.289  1.00  0.00    +0.000 C 
ATOM     49  F8  UNL A   1      11.670  14.325  25.813  1.00  0.00    +0.000 F 
ATOM     50  C36 UNL A   1      10.731  12.978  27.506  1.00  0.00    +0.000 C 
ATOM     51  F9  UNL A   1      10.390  14.068  28.207  1.00  0.00    +0.000 F 
ATOM     52  C37 UNL A   1      10.427  11.711  28.003  1.00  0.00    +0.000 C 
ATOM     53  F10 UNL A   1       9.823  11.668  29.200  1.00  0.00    +0.000 F 
ENDBRANCH   42   43
BRANCH   57   58
ATOM     65  C45 UNL A   1      14.487   2.888  30.507  1.00  0.00    +0.000 C 
ATOM     66  F14 UNL A   1      15.212   2.441  31.541  1.00  0.00    +0.000 F 
ATOM     67  C46 UNL A   1      13.238   3.471  30.736  1.00  0.00    +0.000 C 
ATOM     68  F15 UNL A   1      12.800   3.574  31.999  1.00  0.00    +0.000 F 
ATOM     58  C41 UNL A   1      12.506   4.030  29.683  1.00  0.00    +0.000 C 
ATOM     59  C42 UNL A   1      13.030   3.906  28.384  1.00  0.00    +0.000 C 
ATOM     60  F11 UNL A   1      12.366   4.425  27.339  1.00  0.00    +0.000 F 
ATOM     61  C43 UNL A   1      14.281   3.334  28.160  1.00  0.00    +0.000 C 
ATOM     62  F12 UNL A   1      14.794   3.312  26.921  1.00  0.00    +0.000 F 
ATOM     63  C44 UNL A   1      15.018   2.847  29.225  1.00  0.00    +0.000 C 
ATOM     64  F13 UNL A   1      16.253   2.367  29.025  1.00  0.00    +0.000 F 
ENDBRANCH   57   58
TORSDOF 19
ENDMDL
MODEL 6
REMARK VINA RESULT:     -11.7     32.477     38.944
ROOT
ATOM     21  C17 UNL A   1       8.848   3.388  26.868  1.00  0.00    +0.000 C 
ATOM     22  C18 UNL A   1       8.103   4.244  25.924  1.00  0.00    +0.000 C 
ATOM     23  N3  UNL A   1       8.031   5.533  26.016  1.00  0.00    +0.000 N 
ATOM     24  C19 UNL A   1       7.082   5.963  25.116  1.00  0.00    +0.000 C 
ATOM     25  C20 UNL A   1       6.572   7.225  25.215  1.00  0.00    +0.000 C 
ATOM     37  C27 UNL A   1       7.166   7.961  26.324  1.00  0.00    +0.000 C 
ATOM     38  C28 UNL A   1       6.742   8.170  27.627  1.00  0.00    +0.000 C 
ATOM     39  C29 UNL A   1       7.839   8.651  28.376  1.00  0.00    +0.000 C 
ATOM     40  C30 UNL A   1       8.928   8.744  27.529  1.00  0.00    +0.000 C 
ATOM     41  N4  UNL A   1       8.501   8.348  26.276  1.00  0.00    +0.000 N 
ATOM     42  C31 UNL A   1      10.298   9.166  27.763  1.00  0.00    +0.000 C 
ATOM     54  C38 UNL A   1      11.035   8.324  28.542  1.00  0.00    +0.000 C 
ATOM     55  N5  UNL A   1      10.616   7.050  28.821  1.00  0.00    +0.000 N 
ATOM     56  C39 UNL A   1      11.534   6.442  29.517  1.00  0.00    +0.000 C 
ATOM     57  C40 UNL A   1      11.461   4.990  29.909  1.00  0.00    +0.000 C 
ATOM     69  C47 UNL A   1      10.205   4.461  29.871  1.00  0.00    +0.000 C 
ATOM     70  C48 UNL A   1       8.971   5.226  29.899  1.00  0.00    +0.000 C 
ATOM     71  C49 UNL A   1       8.254   4.854  28.828  1.00  0.00    +0.000 C 
ATOM     72  C50 UNL A   1       8.949   3.754  28.166  1.00  0.00    +0.000 C 
ATOM     73  N6  UNL A   1       9.901   3.291  29.115  1.00  0.00    +0.000 N 
ATOM     74  C51 UNL A   1      12.675   7.302  29.819  1.00  0.00    +0.000 C 
ATOM     75  C52 UNL A   1      12.317   8.444  29.209  1.00  0.00    +0.000 C 
ATOM     76  C53 UNL A   1       6.755   4.794  24.328  1.00  0.00    +0.000 C 
ATOM     77  C54 UNL A   1       7.390   3.705  24.774  1.00  0.00    +0.000 C 
ATOM    117  H22 UNL A   1       5.790   8.004  27.988  1.00  0.00    +0.000 H 
ATOM    118  H23 UNL A   1       7.830   8.890  29.380  1.00  0.00    +0.000 H 
ATOM    119  H24 UNL A   1       9.060   8.340  25.466  1.00  0.00    +0.000 H 
ATOM    120  H25 UNL A   1       8.698   5.924  30.608  1.00  0.00    +0.000 H 
ATOM    121  H26 UNL A   1       7.362   5.274  28.524  1.00  0.00    +0.000 H 
ATOM    122  H27 UNL A   1      10.263   2.382  29.223  1.00  0.00    +0.000 H 
ATOM    123  H28 UNL A   1      13.530   7.089  30.357  1.00  0.00    +0.000 H 
ATOM    124  H29 UNL A   1      12.885   9.306  29.215  1.00  0.00    +0.000 H 
ATOM    125  H30 UNL A   1       6.111   4.800  23.522  1.00  0.00    +0.000 H 
ATOM    126  H31 UNL A   1       7.378   2.741  24.405  1.00  0.00    +0.000 H 
ENDROOT
BRANCH   21   20
ATOM     78  C55 UNL A   1       9.023   0.973  27.120  1.00  0.00    +0.000 C 
ATOM     79  C56 UNL A   1       9.736  -0.203  26.980  1.00  0.00    +0.000 C 
ATOM     17  C13 UNL A   1      10.931  -0.189  26.263  1.00  0.00    +0.000 C 
ATOM     18  C14 UNL A   1      11.253   0.898  25.444  1.00  0.00    +0.000 C 
ATOM     19  C15 UNL A   1      10.489   2.062  25.524  1.00  0.00    +0.000 C 
ATOM    115  H20 UNL A   1      12.047   0.840  24.788  1.00  0.00    +0.000 H 
ATOM    116  H21 UNL A   1      10.696   2.866  24.910  1.00  0.00    +0.000 H 
ATOM     20  C16 UNL A   1       9.441   2.125  26.445  1.00  0.00    +0.000 C 
ATOM    127  H32 UNL A   1       8.185   1.002  27.721  1.00  0.00    +0.000 H 
ATOM    128  H33 UNL A   1       9.389  -1.079  27.401  1.00  0.00    +0.000 H 
BRANCH   17   15
ATOM     15  C12 UNL A   1      11.970  -1.224  26.482  1.00  0.00    +0.000 C 
ATOM     16  O2  UNL A   1      13.117  -0.897  26.728  1.00  0.00    +0.000 O 
BRANCH   15   14
ATOM    114  H19 UNL A   1      11.760  -3.027  27.357  1.00  0.00    +0.000 H 
ATOM     14  N2  UNL A   1      11.594  -2.556  26.509  1.00  0.00    +0.000 N 
BRANCH   14   13
ATOM    113  H18 UNL A   1       9.932  -3.374  25.645  1.00  0.00    +0.000 H 
ATOM     13  C11 UNL A   1      10.985  -3.359  25.455  1.00  0.00    +0.000 C 
ATOM    112  H17 UNL A   1      11.421  -4.336  25.482  1.00  0.00    +0.000 H 
BRANCH   13   12
ATOM     12  C10 UNL A   1      11.176  -2.787  24.057  1.00  0.00    +0.000 C 
ATOM    110  H15 UNL A   1      10.378  -2.100  23.864  1.00  0.00    +0.000 H 
ATOM    111  H16 UNL A   1      12.139  -2.320  24.046  1.00  0.00    +0.000 H 
BRANCH   12   11
ATOM     11  C9  UNL A   1      11.185  -3.837  22.940  1.00  0.00    +0.000 C 
ATOM    108  H13 UNL A   1      12.095  -3.719  22.390  1.00  0.00    +0.000 H 
ATOM    109  H14 UNL A   1      11.083  -4.779  23.437  1.00  0.00    +0.000 H 
BRANCH   11   10
ATOM     10  C8  UNL A   1      10.021  -3.781  21.934  1.00  0.00    +0.000 C 
ATOM    107  H12 UNL A   1      10.428  -4.146  21.013  1.00  0.00    +0.000 H 
ATOM    106  H11 UNL A   1       9.672  -2.771  21.899  1.00  0.00    +0.000 H 
BRANCH   10    9
ATOM      9  C7  UNL A   1       8.814  -4.682  22.227  1.00  0.00    +0.000 C 
ATOM    105  H10 UNL A   1       8.072  -4.051  22.670  1.00  0.00    +0.000 H 
ATOM    104  H9  UNL A   1       9.140  -5.474  22.870  1.00  0.00    +0.000 H 
BRANCH    9    8
ATOM    102  H7  UNL A   1       8.845  -5.258  20.179  1.00  0.00    +0.000 H 
ATOM    103  H8  UNL A   1       7.913  -6.322  21.244  1.00  0.00    +0.000 H 
ATOM      8  C6  UNL A   1       8.159  -5.310  20.997  1.00  0.00    +0.000 C 
BRANCH    8    7
ATOM    101  H6  UNL A   1       6.104  -5.044  20.965  1.00  0.00    +0.000 H 
ATOM      7  N1  UNL A   1       6.933  -4.643  20.617  1.00  0.00    +0.000 N 
BRANCH    7    5
ATOM      5  C5  UNL A   1       6.768  -3.533  19.837  1.00  0.00    +0.000 C 
ATOM      6  O1  UNL A   1       7.229  -3.549  18.694  1.00  0.00    +0.000 O 
BRANCH    5    4
ATOM    100  H5  UNL A   1       5.094  -2.620  20.718  1.00  0.00    +0.000 H 
ATOM     99  H4  UNL A   1       6.008  -1.565  19.609  1.00  0.00    +0.000 H 
ATOM      4  C4  UNL A   1       6.060  -2.298  20.387  1.00  0.00    +0.000 C 
BRANCH    4    3
ATOM    129  H34 UNL A   1       8.214  -0.785  20.355  1.00  0.00    +0.000 H 
ATOM      2  C2  UNL A   1       6.310  -1.846  22.927  1.00  0.00    +0.000 C 
ATOM      3  C3  UNL A   1       6.747  -1.670  21.588  1.00  0.00    +0.000 C 
ATOM    135  H40 UNL A   1       8.619   0.106  24.420  1.00  0.00    +0.000 H 
ATOM     80  C57 UNL A   1       7.888  -0.883  21.329  1.00  0.00    +0.000 C 
ATOM     81  C58 UNL A   1       8.591  -0.235  22.347  1.00  0.00    +0.000 C 
ATOM     88  C65 UNL A   1       8.124  -0.383  23.657  1.00  0.00    +0.000 C 
ATOM     89  C66 UNL A   1       7.000  -1.175  23.973  1.00  0.00    +0.000 C 
BRANCH    2    1
ATOM      1  C1  UNL A   1       5.164  -2.782  23.248  1.00  0.00    +0.000 C 
ATOM     98  H3  UNL A   1       5.045  -2.847  24.308  1.00  0.00    +0.000 H 
ATOM     97  H2  UNL A   1       4.264  -2.406  22.809  1.00  0.00    +0.000 H 
ATOM     96  H1  UNL A   1       5.376  -3.753  22.853  1.00  0.00    +0.000 H 
ENDBRANCH    2    1
BRANCH   81   82
ATOM    130  H35 UNL A   1       8.829   2.443  22.124  1.00  0.00    +0.000 H 
ATOM    131  H36 UNL A   1      10.795   3.744  21.572  1.00  0.00    +0.000 H 
ATOM    132  H37 UNL A   1      12.911   2.634  21.158  1.00  0.00    +0.000 H 
ATOM    133  H38 UNL A   1      13.060   0.219  21.314  1.00  0.00    +0.000 H 
ATOM    134  H39 UNL A   1      11.100  -1.086  21.875  1.00  0.00    +0.000 H 
ATOM     82  C59 UNL A   1       9.789   0.563  22.043  1.00  0.00    +0.000 C 
ATOM     83  C60 UNL A   1       9.725   1.963  21.952  1.00  0.00    +0.000 C 
ATOM     84  C61 UNL A   1      10.859   2.716  21.634  1.00  0.00    +0.000 C 
ATOM     85  C62 UNL A   1      12.075   2.079  21.398  1.00  0.00    +0.000 C 
ATOM     86  C63 UNL A   1      12.160   0.692  21.487  1.00  0.00    +0.000 C 
ATOM     87  C64 UNL A   1      11.027  -0.059  21.809  1.00  0.00    +0.000 C 
ENDBRANCH   81   82
BRANCH   89   90
ATOM    136  H41 UNL A   1       5.518   0.592  25.347  1.00  0.00    +0.000 H 
ATOM    137  H42 UNL A   1       4.798   0.508  27.657  1.00  0.00    +0.000 H 
ATOM    138  H43 UNL A   1       5.415  -1.377  29.053  1.00  0.00    +0.000 H 
ATOM    139  H44 UNL A   1       6.787  -3.158  28.144  1.00  0.00    +0.000 H 
ATOM    140  H45 UNL A   1       7.546  -3.059  25.846  1.00  0.00    +0.000 H 
ATOM     90  C67 UNL A   1       6.578  -1.236  25.387  1.00  0.00    +0.000 C 
ATOM     91  C68 UNL A   1       5.791  -0.209  25.938  1.00  0.00    +0.000 C 
ATOM     92  C69 UNL A   1       5.373  -0.257  27.269  1.00  0.00    +0.000 C 
ATOM     93  C70 UNL A   1       5.732  -1.336  28.072  1.00  0.00    +0.000 C 
ATOM     94  C71 UNL A   1       6.520  -2.359  27.549  1.00  0.00    +0.000 C 
ATOM     95  C72 UNL A   1       6.949  -2.304  26.220  1.00  0.00    +0.000 C 
ENDBRANCH   89   90
ENDBRANCH    4    3
ENDBRANCH    5    4
ENDBRANCH    7    5
ENDBRANCH    8    7
ENDBRANCH    9    8
ENDBRANCH   10    9
ENDBRANCH   11   10
ENDBRANCH   12   11
ENDBRANCH   13   12
ENDBRANCH   14   13
ENDBRANCH   15   14
ENDBRANCH   17   15
ENDBRANCH   21   20
BRANCH   25   26
ATOM     33  C25 UNL A   1       2.991   8.487  24.539  1.00  0.00    +0.000 C 
ATOM     34  F4  UNL A   1       1.876   8.737  25.241  1.00  0.00    +0.000 F 
ATOM     35  C26 UNL A   1       4.070   7.842  25.155  1.00  0.00    +0.000 C 
ATOM     36  F5  UNL A   1       3.861   7.364  26.390  1.00  0.00    +0.000 F 
ATOM     26  C21 UNL A   1       5.306   7.663  24.510  1.00  0.00    +0.000 C 
ATOM     27  C22 UNL A   1       5.307   7.986  23.135  1.00  0.00    +0.000 C 
ATOM     28  F1  UNL A   1       6.369   7.744  22.357  1.00  0.00    +0.000 F 
ATOM     29  C23 UNL A   1       4.212   8.580  22.502  1.00  0.00    +0.000 C 
ATOM     30  F2  UNL A   1       4.283   8.886  21.198  1.00  0.00    +0.000 F 
ATOM     31  C24 UNL A   1       3.070   8.873  23.217  1.00  0.00    +0.000 C 
ATOM     32  F3  UNL A   1       2.043   9.501  22.627  1.00  0.00    +0.000 F 
ENDBRANCH   25   26
BRANCH   42   43
ATOM     43  C32 UNL A   1      10.761  10.497  27.240  1.00  0.00    +0.000 C 
ATOM     44  C33 UNL A   1      11.340  10.674  25.974  1.00  0.00    +0.000 C 
ATOM     45  F6  UNL A   1      11.531   9.635  25.148  1.00  0.00    +0.000 F 
ATOM     46  C34 UNL A   1      11.692  11.938  25.494  1.00  0.00    +0.000 C 
ATOM     47  F7  UNL A   1      12.279  12.053  24.294  1.00  0.00    +0.000 F 
ATOM     48  C35 UNL A   1      11.418  13.073  26.236  1.00  0.00    +0.000 C 
ATOM     49  F8  UNL A   1      11.721  14.285  25.756  1.00  0.00    +0.000 F 
ATOM     50  C36 UNL A   1      10.807  12.945  27.467  1.00  0.00    +0.000 C 
ATOM     51  F9  UNL A   1      10.492  14.037  28.176  1.00  0.00    +0.000 F 
ATOM     52  C37 UNL A   1      10.500  11.680  27.969  1.00  0.00    +0.000 C 
ATOM     53  F10 UNL A   1       9.923  11.641  29.179  1.00  0.00    +0.000 F 
ENDBRANCH   42   43
BRANCH   57   58
ATOM     65  C45 UNL A   1      14.525   2.863  30.484  1.00  0.00    +0.000 C 
ATOM     66  F14 UNL A   1      15.256   2.422  31.517  1.00  0.00    +0.000 F 
ATOM     67  C46 UNL A   1      13.280   3.450  30.717  1.00  0.00    +0.000 C 
ATOM     68  F15 UNL A   1      12.850   3.565  31.982  1.00  0.00    +0.000 F 
ATOM     58  C41 UNL A   1      12.542   4.004  29.665  1.00  0.00    +0.000 C 
ATOM     59  C42 UNL A   1      13.057   3.868  28.363  1.00  0.00    +0.000 C 
ATOM     60  F11 UNL A   1      12.387   4.381  27.319  1.00  0.00    +0.000 F 
ATOM     61  C43 UNL A   1      14.305   3.291  28.135  1.00  0.00    +0.000 C 
ATOM     62  F12 UNL A   1      14.810   3.259  26.893  1.00  0.00    +0.000 F 
ATOM     63  C44 UNL A   1      15.048   2.811  29.199  1.00  0.00    +0.000 C 
ATOM     64  F13 UNL A   1      16.280   2.326  28.994  1.00  0.00    +0.000 F 
ENDBRANCH   57   58
TORSDOF 19
ENDMDL
MODEL 7
REMARK VINA RESULT:     -11.7     21.109     29.117
ROOT
ATOM     21  C17 UNL A   1      22.765  36.687  48.836  1.00  0.00    +0.000 C 
ATOM     22  C18 UNL A   1      21.332  36.563  49.169  1.00  0.00    +0.000 C 
ATOM     23  N3  UNL A   1      20.432  36.129  48.348  1.00  0.00    +0.000 N 
ATOM     24  C19 UNL A   1      19.201  36.364  48.915  1.00  0.00    +0.000 C 
ATOM     25  C20 UNL A   1      18.074  36.302  48.147  1.00  0.00    +0.000 C 
ATOM     37  C27 UNL A   1      18.382  35.961  46.764  1.00  0.00    +0.000 C 
ATOM     38  C28 UNL A   1      18.565  36.747  45.637  1.00  0.00    +0.000 C 
ATOM     39  C29 UNL A   1      19.179  35.955  44.642  1.00  0.00    +0.000 C 
ATOM     40  C30 UNL A   1      19.362  34.684  45.158  1.00  0.00    +0.000 C 
ATOM     41  N4  UNL A   1      18.848  34.691  46.441  1.00  0.00    +0.000 N 
ATOM     42  C31 UNL A   1      19.947  33.486  44.583  1.00  0.00    +0.000 C 
ATOM     54  C38 UNL A   1      21.293  33.545  44.376  1.00  0.00    +0.000 C 
ATOM     55  N5  UNL A   1      22.067  34.524  44.941  1.00  0.00    +0.000 N 
ATOM     56  C39 UNL A   1      23.316  34.304  44.644  1.00  0.00    +0.000 C 
ATOM     57  C40 UNL A   1      24.459  35.120  45.188  1.00  0.00    +0.000 C 
ATOM     69  C47 UNL A   1      24.099  36.349  45.656  1.00  0.00    +0.000 C 
ATOM     70  C48 UNL A   1      22.877  37.054  45.311  1.00  0.00    +0.000 C 
ATOM     71  C49 UNL A   1      22.263  37.361  46.462  1.00  0.00    +0.000 C 
ATOM     72  C50 UNL A   1      23.135  36.978  47.569  1.00  0.00    +0.000 C 
ATOM     73  N6  UNL A   1      24.413  36.774  46.981  1.00  0.00    +0.000 N 
ATOM     74  C51 UNL A   1      23.496  33.140  43.782  1.00  0.00    +0.000 C 
ATOM     75  C52 UNL A   1      22.228  32.717  43.638  1.00  0.00    +0.000 C 
ATOM     76  C53 UNL A   1      19.486  36.795  50.267  1.00  0.00    +0.000 C 
ATOM     77  C54 UNL A   1      20.802  36.904  50.483  1.00  0.00    +0.000 C 
ATOM    117  H22 UNL A   1      18.299  37.739  45.542  1.00  0.00    +0.000 H 
ATOM    118  H23 UNL A   1      19.446  36.269  43.696  1.00  0.00    +0.000 H 
ATOM    119  H24 UNL A   1      18.817  33.911  47.039  1.00  0.00    +0.000 H 
ATOM    120  H25 UNL A   1      22.546  37.276  44.359  1.00  0.00    +0.000 H 
ATOM    121  H26 UNL A   1      21.330  37.794  46.552  1.00  0.00    +0.000 H 
ATOM    122  H27 UNL A   1      25.300  36.896  47.390  1.00  0.00    +0.000 H 
ATOM    123  H28 UNL A   1      24.364  32.746  43.386  1.00  0.00    +0.000 H 
ATOM    124  H29 UNL A   1      21.952  31.900  43.071  1.00  0.00    +0.000 H 
ATOM    125  H30 UNL A   1      18.764  36.993  50.977  1.00  0.00    +0.000 H 
ATOM    126  H31 UNL A   1      21.306  37.161  51.345  1.00  0.00    +0.000 H 
ENDROOT
BRANCH   21   20
ATOM     78  C55 UNL A   1      24.293  37.735  50.417  1.00  0.00    +0.000 C 
ATOM     79  C56 UNL A   1      25.454  37.709  51.166  1.00  0.00    +0.000 C 
ATOM     17  C13 UNL A   1      26.180  36.521  51.248  1.00  0.00    +0.000 C 
ATOM     18  C14 UNL A   1      25.604  35.310  50.851  1.00  0.00    +0.000 C 
ATOM     19  C15 UNL A   1      24.391  35.325  50.163  1.00  0.00    +0.000 C 
ATOM    115  H20 UNL A   1      26.070  34.415  51.065  1.00  0.00    +0.000 H 
ATOM    116  H21 UNL A   1      23.938  34.440  49.883  1.00  0.00    +0.000 H 
ATOM     20  C16 UNL A   1      23.799  36.552  49.857  1.00  0.00    +0.000 C 
ATOM    127  H32 UNL A   1      23.791  38.624  50.271  1.00  0.00    +0.000 H 
ATOM    128  H33 UNL A   1      25.780  38.555  51.657  1.00  0.00    +0.000 H 
BRANCH   17   15
ATOM     15  C12 UNL A   1      27.625  36.527  51.580  1.00  0.00    +0.000 C 
ATOM     16  O2  UNL A   1      28.135  35.554  52.107  1.00  0.00    +0.000 O 
BRANCH   15   14
ATOM    114  H19 UNL A   1      27.937  38.473  51.166  1.00  0.00    +0.000 H 
ATOM     14  N2  UNL A   1      28.399  37.605  51.187  1.00  0.00    +0.000 N 
BRANCH   14   13
ATOM    113  H18 UNL A   1      30.303  36.890  51.386  1.00  0.00    +0.000 H 
ATOM     13  C11 UNL A   1      29.804  37.633  50.799  1.00  0.00    +0.000 C 
ATOM    112  H17 UNL A   1      30.183  38.618  50.977  1.00  0.00    +0.000 H 
BRANCH   13   12
ATOM     12  C10 UNL A   1      30.047  37.280  49.337  1.00  0.00    +0.000 C 
ATOM    110  H15 UNL A   1      30.404  36.273  49.291  1.00  0.00    +0.000 H 
ATOM    111  H16 UNL A   1      29.114  37.416  48.831  1.00  0.00    +0.000 H 
BRANCH   12   11
ATOM     11  C9  UNL A   1      31.064  38.183  48.631  1.00  0.00    +0.000 C 
ATOM    108  H13 UNL A   1      30.574  39.105  48.398  1.00  0.00    +0.000 H 
ATOM    109  H14 UNL A   1      31.884  38.274  49.313  1.00  0.00    +0.000 H 
BRANCH   11   10
ATOM     10  C8  UNL A   1      31.679  37.640  47.328  1.00  0.00    +0.000 C 
ATOM    107  H12 UNL A   1      31.134  38.116  46.540  1.00  0.00    +0.000 H 
ATOM    106  H11 UNL A   1      31.593  36.573  47.350  1.00  0.00    +0.000 H 
BRANCH   10    9
ATOM      9  C7  UNL A   1      33.151  37.983  47.067  1.00  0.00    +0.000 C 
ATOM    105  H10 UNL A   1      33.167  38.562  46.167  1.00  0.00    +0.000 H 
ATOM    104  H9  UNL A   1      33.697  37.065  46.993  1.00  0.00    +0.000 H 
BRANCH    9    8
ATOM    102  H7  UNL A   1      33.354  38.641  49.080  1.00  0.00    +0.000 H 
ATOM    103  H8  UNL A   1      34.859  38.600  48.149  1.00  0.00    +0.000 H 
ATOM      8  C6  UNL A   1      33.818  38.845  48.138  1.00  0.00    +0.000 C 
BRANCH    8    7
ATOM    101  H6  UNL A   1      33.363  40.812  48.605  1.00  0.00    +0.000 H 
ATOM      7  N1  UNL A   1      33.705  40.261  47.865  1.00  0.00    +0.000 N 
BRANCH    7    5
ATOM      5  C5  UNL A   1      34.009  40.939  46.717  1.00  0.00    +0.000 C 
ATOM      6  O1  UNL A   1      35.165  40.882  46.295  1.00  0.00    +0.000 O 
BRANCH    5    4
ATOM    100  H5  UNL A   1      33.410  42.172  45.126  1.00  0.00    +0.000 H 
ATOM     99  H4  UNL A   1      32.601  42.525  46.675  1.00  0.00    +0.000 H 
ATOM      4  C4  UNL A   1      32.946  41.768  46.003  1.00  0.00    +0.000 C 
BRANCH    4    3
ATOM    129  H34 UNL A   1      32.882  40.057  44.002  1.00  0.00    +0.000 H 
ATOM      2  C2  UNL A   1      30.455  41.060  46.116  1.00  0.00    +0.000 C 
ATOM      3  C3  UNL A   1      31.744  40.966  45.531  1.00  0.00    +0.000 C 
ATOM    135  H40 UNL A   1      28.913  38.759  44.194  1.00  0.00    +0.000 H 
ATOM     80  C57 UNL A   1      31.948  40.097  44.439  1.00  0.00    +0.000 C 
ATOM     81  C58 UNL A   1      30.928  39.291  43.929  1.00  0.00    +0.000 C 
ATOM     88  C65 UNL A   1      29.673  39.363  44.544  1.00  0.00    +0.000 C 
ATOM     89  C66 UNL A   1      29.410  40.231  45.625  1.00  0.00    +0.000 C 
BRANCH    2    1
ATOM      1  C1  UNL A   1      30.175  42.072  47.207  1.00  0.00    +0.000 C 
ATOM     98  H3  UNL A   1      29.119  42.148  47.359  1.00  0.00    +0.000 H 
ATOM     97  H2  UNL A   1      30.644  41.756  48.115  1.00  0.00    +0.000 H 
ATOM     96  H1  UNL A   1      30.563  43.026  46.917  1.00  0.00    +0.000 H 
ENDBRANCH    2    1
BRANCH   81   82
ATOM    130  H35 UNL A   1      30.680  36.610  43.769  1.00  0.00    +0.000 H 
ATOM    131  H36 UNL A   1      31.133  35.162  41.882  1.00  0.00    +0.000 H 
ATOM    132  H37 UNL A   1      31.896  36.103  39.781  1.00  0.00    +0.000 H 
ATOM    133  H38 UNL A   1      32.190  38.501  39.567  1.00  0.00    +0.000 H 
ATOM    134  H39 UNL A   1      31.730  39.954  41.448  1.00  0.00    +0.000 H 
ATOM     82  C59 UNL A   1      31.170  38.409  42.777  1.00  0.00    +0.000 C 
ATOM     83  C60 UNL A   1      31.002  37.019  42.878  1.00  0.00    +0.000 C 
ATOM     84  C61 UNL A   1      31.263  36.181  41.791  1.00  0.00    +0.000 C 
ATOM     85  C62 UNL A   1      31.699  36.721  40.583  1.00  0.00    +0.000 C 
ATOM     86  C63 UNL A   1      31.868  38.099  40.461  1.00  0.00    +0.000 C 
ATOM     87  C64 UNL A   1      31.604  38.935  41.548  1.00  0.00    +0.000 C 
ENDBRANCH   81   82
BRANCH   89   90
ATOM    136  H41 UNL A   1      28.509  38.722  47.654  1.00  0.00    +0.000 H 
ATOM    137  H42 UNL A   1      26.304  38.669  48.652  1.00  0.00    +0.000 H 
ATOM    138  H43 UNL A   1      24.558  40.130  47.816  1.00  0.00    +0.000 H 
ATOM    139  H44 UNL A   1      25.013  41.617  45.955  1.00  0.00    +0.000 H 
ATOM    140  H45 UNL A   1      27.204  41.644  44.925  1.00  0.00    +0.000 H 
ATOM     90  C67 UNL A   1      28.057  40.203  46.215  1.00  0.00    +0.000 C 
ATOM     91  C68 UNL A   1      27.769  39.340  47.288  1.00  0.00    +0.000 C 
ATOM     92  C69 UNL A   1      26.498  39.309  47.866  1.00  0.00    +0.000 C 
ATOM     93  C70 UNL A   1      25.494  40.145  47.383  1.00  0.00    +0.000 C 
ATOM     94  C71 UNL A   1      25.756  40.999  46.314  1.00  0.00    +0.000 C 
ATOM     95  C72 UNL A   1      27.024  41.020  45.727  1.00  0.00    +0.000 C 
ENDBRANCH   89   90
ENDBRANCH    4    3
ENDBRANCH    5    4
ENDBRANCH    7    5
ENDBRANCH    8    7
ENDBRANCH    9    8
ENDBRANCH   10    9
ENDBRANCH   11   10
ENDBRANCH   12   11
ENDBRANCH   13   12
ENDBRANCH   14   13
ENDBRANCH   15   14
ENDBRANCH   17   15
ENDBRANCH   21   20
BRANCH   25   26
ATOM     33  C25 UNL A   1      14.297  36.735  48.797  1.00  0.00    +0.000 C 
ATOM     34  F4  UNL A   1      13.153  36.125  48.454  1.00  0.00    +0.000 F 
ATOM     35  C26 UNL A   1      15.497  36.357  48.182  1.00  0.00    +0.000 C 
ATOM     36  F5  UNL A   1      15.405  35.501  47.155  1.00  0.00    +0.000 F 
ATOM     26  C21 UNL A   1      16.741  36.872  48.586  1.00  0.00    +0.000 C 
ATOM     27  C22 UNL A   1      16.669  37.945  49.501  1.00  0.00    +0.000 C 
ATOM     28  F1  UNL A   1      17.759  38.625  49.875  1.00  0.00    +0.000 F 
ATOM     29  C23 UNL A   1      15.466  38.362  50.076  1.00  0.00    +0.000 C 
ATOM     30  F2  UNL A   1      15.464  39.373  50.958  1.00  0.00    +0.000 F 
ATOM     31  C24 UNL A   1      14.285  37.724  49.758  1.00  0.00    +0.000 C 
ATOM     32  F3  UNL A   1      13.139  38.080  50.357  1.00  0.00    +0.000 F 
ENDBRANCH   25   26
BRANCH   42   43
ATOM     43  C32 UNL A   1      19.052  32.349  44.176  1.00  0.00    +0.000 C 
ATOM     44  C33 UNL A   1      18.078  32.452  43.170  1.00  0.00    +0.000 C 
ATOM     45  F6  UNL A   1      17.877  33.604  42.515  1.00  0.00    +0.000 F 
ATOM     46  C34 UNL A   1      17.313  31.353  42.769  1.00  0.00    +0.000 C 
ATOM     47  F7  UNL A   1      16.367  31.510  41.833  1.00  0.00    +0.000 F 
ATOM     48  C35 UNL A   1      17.542  30.102  43.313  1.00  0.00    +0.000 C 
ATOM     49  F8  UNL A   1      16.834  29.044  42.898  1.00  0.00    +0.000 F 
ATOM     50  C36 UNL A   1      18.523  29.950  44.271  1.00  0.00    +0.000 C 
ATOM     51  F9  UNL A   1      18.789  28.736  44.772  1.00  0.00    +0.000 F 
ATOM     52  C37 UNL A   1      19.253  31.055  44.708  1.00  0.00    +0.000 C 
ATOM     53  F10 UNL A   1      20.177  30.825  45.654  1.00  0.00    +0.000 F 
ENDBRANCH   42   43
BRANCH   57   58
ATOM     65  C45 UNL A   1      28.020  34.001  45.746  1.00  0.00    +0.000 C 
ATOM     66  F14 UNL A   1      29.236  34.243  45.235  1.00  0.00    +0.000 F 
ATOM     67  C46 UNL A   1      26.949  34.831  45.408  1.00  0.00    +0.000 C 
ATOM     68  F15 UNL A   1      27.168  35.852  44.566  1.00  0.00    +0.000 F 
ATOM     58  C41 UNL A   1      25.654  34.544  45.852  1.00  0.00    +0.000 C 
ATOM     59  C42 UNL A   1      25.488  33.447  46.717  1.00  0.00    +0.000 C 
ATOM     60  F11 UNL A   1      24.266  33.130  47.173  1.00  0.00    +0.000 F 
ATOM     61  C43 UNL A   1      26.557  32.615  47.044  1.00  0.00    +0.000 C 
ATOM     62  F12 UNL A   1      26.350  31.525  47.797  1.00  0.00    +0.000 F 
ATOM     63  C44 UNL A   1      27.818  32.880  46.538  1.00  0.00    +0.000 C 
ATOM     64  F13 UNL A   1      28.832  32.040  46.786  1.00  0.00    +0.000 F 
ENDBRANCH   57   58
TORSDOF 19
ENDMDL
MODEL 8
REMARK VINA RESULT:     -11.7     38.314     44.107
ROOT
ATOM     21  C17 UNL A   1      11.381  49.457   4.543  1.00  0.00    +0.000 C 
ATOM     22  C18 UNL A   1      10.149  49.335   5.348  1.00  0.00    +0.000 C 
ATOM     23  N3  UNL A   1      10.072  48.679   6.460  1.00  0.00    +0.000 N 
ATOM     24  C19 UNL A   1       8.742  48.593   6.803  1.00  0.00    +0.000 C 
ATOM     25  C20 UNL A   1       8.338  47.695   7.748  1.00  0.00    +0.000 C 
ATOM     37  C27 UNL A   1       9.461  46.934   8.283  1.00  0.00    +0.000 C 
ATOM     38  C28 UNL A   1       9.969  45.686   7.959  1.00  0.00    +0.000 C 
ATOM     39  C29 UNL A   1      11.257  45.573   8.529  1.00  0.00    +0.000 C 
ATOM     40  C30 UNL A   1      11.530  46.746   9.208  1.00  0.00    +0.000 C 
ATOM     41  N4  UNL A   1      10.419  47.558   9.074  1.00  0.00    +0.000 N 
ATOM     42  C31 UNL A   1      12.695  47.176   9.961  1.00  0.00    +0.000 C 
ATOM     54  C38 UNL A   1      13.812  47.403   9.213  1.00  0.00    +0.000 C 
ATOM     55  N5  UNL A   1      13.755  47.514   7.849  1.00  0.00    +0.000 N 
ATOM     56  C39 UNL A   1      14.942  47.803   7.396  1.00  0.00    +0.000 C 
ATOM     57  C40 UNL A   1      15.232  48.106   5.950  1.00  0.00    +0.000 C 
ATOM     69  C47 UNL A   1      14.287  47.648   5.079  1.00  0.00    +0.000 C 
ATOM     70  C48 UNL A   1      13.320  46.603   5.364  1.00  0.00    +0.000 C 
ATOM     71  C49 UNL A   1      12.106  47.112   5.107  1.00  0.00    +0.000 C 
ATOM     72  C50 UNL A   1      12.275  48.442   4.530  1.00  0.00    +0.000 C 
ATOM     73  N6  UNL A   1      13.641  48.509   4.145  1.00  0.00    +0.000 N 
ATOM     74  C51 UNL A   1      15.950  47.868   8.450  1.00  0.00    +0.000 C 
ATOM     75  C52 UNL A   1      15.210  47.606   9.541  1.00  0.00    +0.000 C 
ATOM     76  C53 UNL A   1       8.057  49.463   5.871  1.00  0.00    +0.000 C 
ATOM     77  C54 UNL A   1       8.897  49.974   4.964  1.00  0.00    +0.000 C 
ATOM    117  H22 UNL A   1       9.491  44.964   7.398  1.00  0.00    +0.000 H 
ATOM    118  H23 UNL A   1      11.885  44.758   8.451  1.00  0.00    +0.000 H 
ATOM    119  H24 UNL A   1      10.320  48.448   9.481  1.00  0.00    +0.000 H 
ATOM    120  H25 UNL A   1      13.527  45.650   5.701  1.00  0.00    +0.000 H 
ATOM    121  H26 UNL A   1      11.204  46.643   5.287  1.00  0.00    +0.000 H 
ATOM    122  H27 UNL A   1      14.044  49.026   3.410  1.00  0.00    +0.000 H 
ATOM    123  H28 UNL A   1      16.961  48.062   8.378  1.00  0.00    +0.000 H 
ATOM    124  H29 UNL A   1      15.591  47.555  10.499  1.00  0.00    +0.000 H 
ATOM    125  H30 UNL A   1       7.046  49.665   5.902  1.00  0.00    +0.000 H 
ATOM    126  H31 UNL A   1       8.710  50.639   4.198  1.00  0.00    +0.000 H 
ENDROOT
BRANCH   21   20
ATOM     78  C55 UNL A   1      12.284  51.708   4.332  1.00  0.00    +0.000 C 
ATOM     79  C56 UNL A   1      12.305  52.943   3.712  1.00  0.00    +0.000 C 
ATOM     17  C13 UNL A   1      11.573  53.124   2.539  1.00  0.00    +0.000 C 
ATOM     18  C14 UNL A   1      11.084  52.021   1.832  1.00  0.00    +0.000 C 
ATOM     19  C15 UNL A   1      11.132  50.758   2.421  1.00  0.00    +0.000 C 
ATOM    115  H20 UNL A   1      10.692  52.140   0.885  1.00  0.00    +0.000 H 
ATOM    116  H21 UNL A   1      10.798  49.928   1.905  1.00  0.00    +0.000 H 
ATOM     20  C16 UNL A   1      11.637  50.631   3.716  1.00  0.00    +0.000 C 
ATOM    127  H32 UNL A   1      12.745  51.580   5.246  1.00  0.00    +0.000 H 
ATOM    128  H33 UNL A   1      12.852  53.721   4.111  1.00  0.00    +0.000 H 
BRANCH   17   15
ATOM     15  C12 UNL A   1      11.139  54.474   2.106  1.00  0.00    +0.000 C 
ATOM     16  O2  UNL A   1      11.964  55.346   1.902  1.00  0.00    +0.000 O 
BRANCH   15   14
ATOM    114  H19 UNL A   1       9.545  54.655   0.888  1.00  0.00    +0.000 H 
ATOM     14  N2  UNL A   1       9.798  54.693   1.838  1.00  0.00    +0.000 N 
BRANCH   14   13
ATOM    113  H18 UNL A   1       8.084  55.704   2.303  1.00  0.00    +0.000 H 
ATOM     13  C11 UNL A   1       8.710  54.970   2.767  1.00  0.00    +0.000 C 
ATOM    112  H17 UNL A   1       9.132  55.315   3.688  1.00  0.00    +0.000 H 
BRANCH   13   12
ATOM     12  C10 UNL A   1       7.830  53.762   3.064  1.00  0.00    +0.000 C 
ATOM    110  H15 UNL A   1       6.810  54.045   2.909  1.00  0.00    +0.000 H 
ATOM    111  H16 UNL A   1       8.152  52.981   2.407  1.00  0.00    +0.000 H 
BRANCH   12   11
ATOM     11  C9  UNL A   1       7.965  53.218   4.491  1.00  0.00    +0.000 C 
ATOM    108  H13 UNL A   1       7.052  53.428   5.007  1.00  0.00    +0.000 H 
ATOM    109  H14 UNL A   1       8.185  52.177   4.377  1.00  0.00    +0.000 H 
BRANCH   11   10
ATOM     10  C8  UNL A   1       9.120  53.785   5.337  1.00  0.00    +0.000 C 
ATOM    107  H12 UNL A   1       8.745  54.701   5.747  1.00  0.00    +0.000 H 
ATOM    106  H11 UNL A   1       9.967  53.897   4.695  1.00  0.00    +0.000 H 
BRANCH   10    9
ATOM      9  C7  UNL A   1       9.560  52.951   6.548  1.00  0.00    +0.000 C 
ATOM    105  H10 UNL A   1      10.375  53.482   6.994  1.00  0.00    +0.000 H 
ATOM    104  H9  UNL A   1       9.827  51.975   6.198  1.00  0.00    +0.000 H 
BRANCH    9    8
ATOM    102  H7  UNL A   1       8.278  53.755   8.044  1.00  0.00    +0.000 H 
ATOM    103  H8  UNL A   1       7.647  52.332   7.200  1.00  0.00    +0.000 H 
ATOM      8  C6  UNL A   1       8.507  52.790   7.643  1.00  0.00    +0.000 C 
BRANCH    8    7
ATOM    101  H6  UNL A   1       8.240  51.444   9.195  1.00  0.00    +0.000 H 
ATOM      7  N1  UNL A   1       8.950  51.935   8.722  1.00  0.00    +0.000 N 
BRANCH    7    5
ATOM      5  C5  UNL A   1      10.221  51.716   9.176  1.00  0.00    +0.000 C 
ATOM      6  O1  UNL A   1      10.744  50.625   8.940  1.00  0.00    +0.000 O 
BRANCH    5    4
ATOM    100  H5  UNL A   1      11.090  52.391  10.965  1.00  0.00    +0.000 H 
ATOM     99  H4  UNL A   1      10.361  53.678   9.970  1.00  0.00    +0.000 H 
ATOM      4  C4  UNL A   1      10.952  52.787   9.979  1.00  0.00    +0.000 C 
BRANCH    4    3
ATOM    129  H34 UNL A   1      13.200  51.526  10.521  1.00  0.00    +0.000 H 
ATOM      2  C2  UNL A   1      12.601  54.219   8.583  1.00  0.00    +0.000 C 
ATOM      3  C3  UNL A   1      12.335  53.127   9.449  1.00  0.00    +0.000 C 
ATOM    135  H40 UNL A   1      15.909  53.699   8.194  1.00  0.00    +0.000 H 
ATOM     80  C57 UNL A   1      13.398  52.301   9.868  1.00  0.00    +0.000 C 
ATOM     81  C58 UNL A   1      14.710  52.497   9.431  1.00  0.00    +0.000 C 
ATOM     88  C65 UNL A   1      14.949  53.552   8.544  1.00  0.00    +0.000 C 
ATOM     89  C66 UNL A   1      13.926  54.421   8.109  1.00  0.00    +0.000 C 
BRANCH    2    1
ATOM      1  C1  UNL A   1      11.504  55.196   8.214  1.00  0.00    +0.000 C 
ATOM     98  H3  UNL A   1      11.218  55.041   7.195  1.00  0.00    +0.000 H 
ATOM     97  H2  UNL A   1      10.658  55.038   8.850  1.00  0.00    +0.000 H 
ATOM     96  H1  UNL A   1      11.862  56.196   8.337  1.00  0.00    +0.000 H 
ENDBRANCH    2    1
BRANCH   81   82
ATOM    130  H35 UNL A   1      15.098  51.454  11.888  1.00  0.00    +0.000 H 
ATOM    131  H36 UNL A   1      16.923  50.067  12.669  1.00  0.00    +0.000 H 
ATOM    132  H37 UNL A   1      18.702  49.428  11.150  1.00  0.00    +0.000 H 
ATOM    133  H38 UNL A   1      18.644  50.168   8.841  1.00  0.00    +0.000 H 
ATOM    134  H39 UNL A   1      16.818  51.547   8.053  1.00  0.00    +0.000 H 
ATOM     82  C59 UNL A   1      15.799  51.627   9.903  1.00  0.00    +0.000 C 
ATOM     83  C60 UNL A   1      15.849  51.185  11.235  1.00  0.00    +0.000 C 
ATOM     84  C61 UNL A   1      16.901  50.384  11.688  1.00  0.00    +0.000 C 
ATOM     85  C62 UNL A   1      17.923  50.016  10.815  1.00  0.00    +0.000 C 
ATOM     86  C63 UNL A   1      17.889  50.441   9.490  1.00  0.00    +0.000 C 
ATOM     87  C64 UNL A   1      16.835  51.239   9.037  1.00  0.00    +0.000 C 
ENDBRANCH   81   82
BRANCH   89   90
ATOM    136  H41 UNL A   1      12.962  54.830   5.637  1.00  0.00    +0.000 H 
ATOM    137  H42 UNL A   1      13.523  56.570   4.052  1.00  0.00    +0.000 H 
ATOM    138  H43 UNL A   1      15.162  58.261   4.634  1.00  0.00    +0.000 H 
ATOM    139  H44 UNL A   1      16.266  58.183   6.792  1.00  0.00    +0.000 H 
ATOM    140  H45 UNL A   1      15.741  56.419   8.365  1.00  0.00    +0.000 H 
ATOM     90  C67 UNL A   1      14.288  55.483   7.149  1.00  0.00    +0.000 C 
ATOM     91  C68 UNL A   1      13.667  55.540   5.889  1.00  0.00    +0.000 C 
ATOM     92  C69 UNL A   1      13.987  56.545   4.973  1.00  0.00    +0.000 C 
ATOM     93  C70 UNL A   1      14.932  57.512   5.306  1.00  0.00    +0.000 C 
ATOM     94  C71 UNL A   1      15.565  57.467   6.545  1.00  0.00    +0.000 C 
ATOM     95  C72 UNL A   1      15.254  56.454   7.456  1.00  0.00    +0.000 C 
ENDBRANCH   89   90
ENDBRANCH    4    3
ENDBRANCH    5    4
ENDBRANCH    7    5
ENDBRANCH    8    7
ENDBRANCH    9    8
ENDBRANCH   10    9
ENDBRANCH   11   10
ENDBRANCH   12   11
ENDBRANCH   13   12
ENDBRANCH   14   13
ENDBRANCH   15   14
ENDBRANCH   17   15
ENDBRANCH   21   20
BRANCH   25   26
ATOM     33  C25 UNL A   1       4.606  47.742   8.717  1.00  0.00    +0.000 C 
ATOM     34  F4  UNL A   1       3.773  48.514   9.429  1.00  0.00    +0.000 F 
ATOM     35  C26 UNL A   1       5.984  47.983   8.757  1.00  0.00    +0.000 C 
ATOM     36  F5  UNL A   1       6.411  48.892   9.645  1.00  0.00    +0.000 F 
ATOM     26  C21 UNL A   1       6.892  47.288   7.940  1.00  0.00    +0.000 C 
ATOM     27  C22 UNL A   1       6.340  46.193   7.241  1.00  0.00    +0.000 C 
ATOM     28  F1  UNL A   1       7.104  45.356   6.528  1.00  0.00    +0.000 F 
ATOM     29  C23 UNL A   1       4.971  45.914   7.241  1.00  0.00    +0.000 C 
ATOM     30  F2  UNL A   1       4.503  44.872   6.538  1.00  0.00    +0.000 F 
ATOM     31  C24 UNL A   1       4.098  46.718   7.943  1.00  0.00    +0.000 C 
ATOM     32  F3  UNL A   1       2.778  46.491   7.893  1.00  0.00    +0.000 F 
ENDBRANCH   25   26
BRANCH   42   43
ATOM     43  C32 UNL A   1      12.623  47.237  11.461  1.00  0.00    +0.000 C 
ATOM     44  C33 UNL A   1      12.618  48.438  12.188  1.00  0.00    +0.000 C 
ATOM     45  F6  UNL A   1      12.694  49.624  11.569  1.00  0.00    +0.000 F 
ATOM     46  C34 UNL A   1      12.478  48.457  13.579  1.00  0.00    +0.000 C 
ATOM     47  F7  UNL A   1      12.519  49.625  14.234  1.00  0.00    +0.000 F 
ATOM     48  C35 UNL A   1      12.274  47.282  14.280  1.00  0.00    +0.000 C 
ATOM     49  F8  UNL A   1      12.101  47.309  15.608  1.00  0.00    +0.000 F 
ATOM     50  C36 UNL A   1      12.226  46.084  13.596  1.00  0.00    +0.000 C 
ATOM     51  F9  UNL A   1      11.982  44.944  14.256  1.00  0.00    +0.000 F 
ATOM     52  C37 UNL A   1      12.416  46.059  12.215  1.00  0.00    +0.000 C 
ATOM     53  F10 UNL A   1      12.371  44.854  11.628  1.00  0.00    +0.000 F 
ENDBRANCH   42   43
BRANCH   57   58
ATOM     65  C45 UNL A   1      15.915  51.690   4.985  1.00  0.00    +0.000 C 
ATOM     66  F14 UNL A   1      15.383  52.902   5.199  1.00  0.00    +0.000 F 
ATOM     67  C46 UNL A   1      15.487  50.601   5.747  1.00  0.00    +0.000 C 
ATOM     68  F15 UNL A   1      14.540  50.799   6.675  1.00  0.00    +0.000 F 
ATOM     58  C41 UNL A   1      15.958  49.311   5.478  1.00  0.00    +0.000 C 
ATOM     59  C42 UNL A   1      16.936  49.168   4.479  1.00  0.00    +0.000 C 
ATOM     60  F11 UNL A   1      17.421  47.951   4.182  1.00  0.00    +0.000 F 
ATOM     61  C43 UNL A   1      17.353  50.255   3.712  1.00  0.00    +0.000 C 
ATOM     62  F12 UNL A   1      18.220  50.071   2.706  1.00  0.00    +0.000 F 
ATOM     63  C44 UNL A   1      16.824  51.511   3.951  1.00  0.00    +0.000 C 
ATOM     64  F13 UNL A   1      17.163  52.544   3.168  1.00  0.00    +0.000 F 
ENDBRANCH   57   58
TORSDOF 19
ENDMDL
MODEL 9
REMARK VINA RESULT:     -11.5     21.282     29.293
ROOT
ATOM     21  C17 UNL A   1      23.032  37.117  49.094  1.00  0.00    +0.000 C 
ATOM     22  C18 UNL A   1      21.600  36.914  49.390  1.00  0.00    +0.000 C 
ATOM     23  N3  UNL A   1      20.744  36.445  48.541  1.00  0.00    +0.000 N 
ATOM     24  C19 UNL A   1      19.488  36.608  49.082  1.00  0.00    +0.000 C 
ATOM     25  C20 UNL A   1      18.384  36.498  48.286  1.00  0.00    +0.000 C 
ATOM     37  C27 UNL A   1      18.743  36.192  46.906  1.00  0.00    +0.000 C 
ATOM     38  C28 UNL A   1      18.912  37.001  45.794  1.00  0.00    +0.000 C 
ATOM     39  C29 UNL A   1      19.590  36.256  44.804  1.00  0.00    +0.000 C 
ATOM     40  C30 UNL A   1      19.826  34.990  45.309  1.00  0.00    +0.000 C 
ATOM     41  N4  UNL A   1      19.282  34.953  46.579  1.00  0.00    +0.000 N 
ATOM     42  C31 UNL A   1      20.487  33.831  44.735  1.00  0.00    +0.000 C 
ATOM     54  C38 UNL A   1      21.832  33.963  44.561  1.00  0.00    +0.000 C 
ATOM     55  N5  UNL A   1      22.540  34.973  45.156  1.00  0.00    +0.000 N 
ATOM     56  C39 UNL A   1      23.806  34.822  44.887  1.00  0.00    +0.000 C 
ATOM     57  C40 UNL A   1      24.891  35.689  45.468  1.00  0.00    +0.000 C 
ATOM     69  C47 UNL A   1      24.457  36.891  45.943  1.00  0.00    +0.000 C 
ATOM     70  C48 UNL A   1      23.208  37.536  45.576  1.00  0.00    +0.000 C 
ATOM     71  C49 UNL A   1      22.551  37.795  46.716  1.00  0.00    +0.000 C 
ATOM     72  C50 UNL A   1      23.416  37.444  47.839  1.00  0.00    +0.000 C 
ATOM     73  N6  UNL A   1      24.716  37.314  47.279  1.00  0.00    +0.000 N 
ATOM     74  C51 UNL A   1      24.066  33.681  44.015  1.00  0.00    +0.000 C 
ATOM     75  C52 UNL A   1      22.826  33.194  43.836  1.00  0.00    +0.000 C 
ATOM     76  C53 UNL A   1      19.719  37.035  50.445  1.00  0.00    +0.000 C 
ATOM     77  C54 UNL A   1      21.021  37.209  50.694  1.00  0.00    +0.000 C 
ATOM    117  H22 UNL A   1      18.597  37.980  45.704  1.00  0.00    +0.000 H 
ATOM    118  H23 UNL A   1      19.862  36.596  43.869  1.00  0.00    +0.000 H 
ATOM    119  H24 UNL A   1      19.278  34.164  47.167  1.00  0.00    +0.000 H 
ATOM    120  H25 UNL A   1      22.888  37.753  44.620  1.00  0.00    +0.000 H 
ATOM    121  H26 UNL A   1      21.596  38.179  46.788  1.00  0.00    +0.000 H 
ATOM    122  H27 UNL A   1      25.586  37.476  47.711  1.00  0.00    +0.000 H 
ATOM    123  H28 UNL A   1      24.963  33.337  43.637  1.00  0.00    +0.000 H 
ATOM    124  H29 UNL A   1      22.607  32.372  43.252  1.00  0.00    +0.000 H 
ATOM    125  H30 UNL A   1      18.971  37.186  51.140  1.00  0.00    +0.000 H 
ATOM    126  H31 UNL A   1      21.491  37.481  51.572  1.00  0.00    +0.000 H 
ENDROOT
BRANCH   21   20
ATOM     78  C55 UNL A   1      24.589  38.224  50.603  1.00  0.00    +0.000 C 
ATOM     79  C56 UNL A   1      25.739  38.209  51.369  1.00  0.00    +0.000 C 
ATOM     17  C13 UNL A   1      26.408  37.001  51.562  1.00  0.00    +0.000 C 
ATOM     18  C14 UNL A   1      25.781  35.788  51.259  1.00  0.00    +0.000 C 
ATOM     19  C15 UNL A   1      24.578  35.800  50.554  1.00  0.00    +0.000 C 
ATOM    115  H20 UNL A   1      26.203  34.894  51.555  1.00  0.00    +0.000 H 
ATOM    116  H21 UNL A   1      24.088  34.916  50.343  1.00  0.00    +0.000 H 
ATOM     20  C16 UNL A   1      24.047  37.022  50.137  1.00  0.00    +0.000 C 
ATOM    127  H32 UNL A   1      24.131  39.120  50.375  1.00  0.00    +0.000 H 
ATOM    128  H33 UNL A   1      26.099  39.078  51.792  1.00  0.00    +0.000 H 
BRANCH   17   15
ATOM     15  C12 UNL A   1      27.848  36.969  51.914  1.00  0.00    +0.000 C 
ATOM     16  O2  UNL A   1      28.243  36.243  52.809  1.00  0.00    +0.000 O 
BRANCH   15   14
ATOM    114  H19 UNL A   1      29.114  38.497  51.568  1.00  0.00    +0.000 H 
ATOM     14  N2  UNL A   1      28.743  37.691  51.143  1.00  0.00    +0.000 N 
BRANCH   14   13
ATOM    113  H18 UNL A   1      28.570  36.672  49.380  1.00  0.00    +0.000 H 
ATOM     13  C11 UNL A   1      29.212  37.424  49.789  1.00  0.00    +0.000 C 
ATOM    112  H17 UNL A   1      30.233  37.107  49.842  1.00  0.00    +0.000 H 
BRANCH   13   12
ATOM     12  C10 UNL A   1      29.131  38.629  48.860  1.00  0.00    +0.000 C 
ATOM    110  H15 UNL A   1      30.122  38.871  48.538  1.00  0.00    +0.000 H 
ATOM    111  H16 UNL A   1      28.487  38.349  48.052  1.00  0.00    +0.000 H 
BRANCH   12   11
ATOM     11  C9  UNL A   1      28.514  39.879  49.498  1.00  0.00    +0.000 C 
ATOM    108  H13 UNL A   1      27.789  40.269  48.815  1.00  0.00    +0.000 H 
ATOM    109  H14 UNL A   1      28.113  39.549  50.434  1.00  0.00    +0.000 H 
BRANCH   11   10
ATOM     10  C8  UNL A   1      29.485  41.020  49.852  1.00  0.00    +0.000 C 
ATOM    107  H12 UNL A   1      29.202  41.336  50.835  1.00  0.00    +0.000 H 
ATOM    106  H11 UNL A   1      29.389  41.772  49.097  1.00  0.00    +0.000 H 
BRANCH   10    9
ATOM      9  C7  UNL A   1      30.971  40.652  49.958  1.00  0.00    +0.000 C 
ATOM    105  H10 UNL A   1      31.232  40.196  49.025  1.00  0.00    +0.000 H 
ATOM    104  H9  UNL A   1      31.092  40.002  50.799  1.00  0.00    +0.000 H 
BRANCH    9    8
ATOM    102  H7  UNL A   1      31.411  42.610  50.665  1.00  0.00    +0.000 H 
ATOM    103  H8  UNL A   1      32.778  41.484  50.670  1.00  0.00    +0.000 H 
ATOM      8  C6  UNL A   1      31.922  41.835  50.133  1.00  0.00    +0.000 C 
BRANCH    8    7
ATOM    101  H6  UNL A   1      32.149  43.308  48.694  1.00  0.00    +0.000 H 
ATOM      7  N1  UNL A   1      32.386  42.370  48.871  1.00  0.00    +0.000 N 
BRANCH    7    5
ATOM      5  C5  UNL A   1      33.108  41.748  47.891  1.00  0.00    +0.000 C 
ATOM      6  O1  UNL A   1      33.954  40.917  48.229  1.00  0.00    +0.000 O 
BRANCH    5    4
ATOM    100  H5  UNL A   1      33.811  41.897  45.918  1.00  0.00    +0.000 H 
ATOM     99  H4  UNL A   1      32.608  43.134  46.365  1.00  0.00    +0.000 H 
ATOM      4  C4  UNL A   1      32.890  42.104  46.424  1.00  0.00    +0.000 C 
BRANCH    4    3
ATOM    129  H34 UNL A   1      30.304  42.153  46.918  1.00  0.00    +0.000 H 
ATOM      2  C2  UNL A   1      32.089  40.321  44.721  1.00  0.00    +0.000 C 
ATOM      3  C3  UNL A   1      31.818  41.275  45.736  1.00  0.00    +0.000 C 
ATOM    135  H40 UNL A   1      28.907  39.388  44.111  1.00  0.00    +0.000 H 
ATOM     80  C57 UNL A   1      30.488  41.478  46.159  1.00  0.00    +0.000 C 
ATOM     81  C58 UNL A   1      29.413  40.794  45.588  1.00  0.00    +0.000 C 
ATOM     88  C65 UNL A   1      29.691  39.887  44.559  1.00  0.00    +0.000 C 
ATOM     89  C66 UNL A   1      31.005  39.632  44.112  1.00  0.00    +0.000 C 
BRANCH    2    1
ATOM      1  C1  UNL A   1      33.515  39.992  44.332  1.00  0.00    +0.000 C 
ATOM     98  H3  UNL A   1      33.577  39.882  43.270  1.00  0.00    +0.000 H 
ATOM     97  H2  UNL A   1      34.161  40.784  44.648  1.00  0.00    +0.000 H 
ATOM     96  H1  UNL A   1      33.811  39.079  44.803  1.00  0.00    +0.000 H 
ENDBRANCH    2    1
BRANCH   81   82
ATOM    130  H35 UNL A   1      27.240  39.225  45.281  1.00  0.00    +0.000 H 
ATOM    131  H36 UNL A   1      24.972  39.624  46.028  1.00  0.00    +0.000 H 
ATOM    132  H37 UNL A   1      24.430  41.651  47.245  1.00  0.00    +0.000 H 
ATOM    133  H38 UNL A   1      26.169  43.271  47.729  1.00  0.00    +0.000 H 
ATOM    134  H39 UNL A   1      28.440  42.873  46.993  1.00  0.00    +0.000 H 
ATOM     82  C59 UNL A   1      28.039  41.016  46.067  1.00  0.00    +0.000 C 
ATOM     83  C60 UNL A   1      27.019  40.088  45.801  1.00  0.00    +0.000 C 
ATOM     84  C61 UNL A   1      25.709  40.316  46.231  1.00  0.00    +0.000 C 
ATOM     85  C62 UNL A   1      25.398  41.479  46.931  1.00  0.00    +0.000 C 
ATOM     86  C63 UNL A   1      26.397  42.410  47.208  1.00  0.00    +0.000 C 
ATOM     87  C64 UNL A   1      27.707  42.179  46.781  1.00  0.00    +0.000 C 
ENDBRANCH   81   82
BRANCH   89   90
ATOM    136  H41 UNL A   1      30.486  36.998  44.083  1.00  0.00    +0.000 H 
ATOM    137  H42 UNL A   1      30.743  35.414  42.271  1.00  0.00    +0.000 H 
ATOM    138  H43 UNL A   1      31.566  36.158  40.115  1.00  0.00    +0.000 H 
ATOM    139  H44 UNL A   1      32.169  38.485  39.788  1.00  0.00    +0.000 H 
ATOM    140  H45 UNL A   1      31.955  40.066  41.609  1.00  0.00    +0.000 H 
ATOM     90  C67 UNL A   1      31.178  38.676  43.000  1.00  0.00    +0.000 C 
ATOM     91  C68 UNL A   1      30.845  37.321  43.171  1.00  0.00    +0.000 C 
ATOM     92  C69 UNL A   1      30.990  36.405  42.127  1.00  0.00    +0.000 C 
ATOM     93  C70 UNL A   1      31.468  36.832  40.891  1.00  0.00    +0.000 C 
ATOM     94  C71 UNL A   1      31.814  38.168  40.703  1.00  0.00    +0.000 C 
ATOM     95  C72 UNL A   1      31.681  39.081  41.753  1.00  0.00    +0.000 C 
ENDBRANCH   89   90
ENDBRANCH    4    3
ENDBRANCH    5    4
ENDBRANCH    7    5
ENDBRANCH    8    7
ENDBRANCH    9    8
ENDBRANCH   10    9
ENDBRANCH   11   10
ENDBRANCH   12   11
ENDBRANCH   13   12
ENDBRANCH   14   13
ENDBRANCH   15   14
ENDBRANCH   17   15
ENDBRANCH   21   20
BRANCH   25   26
ATOM     33  C25 UNL A   1      14.582  36.705  48.891  1.00  0.00    +0.000 C 
ATOM     34  F4  UNL A   1      13.482  36.016  48.553  1.00  0.00    +0.000 F 
ATOM     35  C26 UNL A   1      15.810  36.390  48.297  1.00  0.00    +0.000 C 
ATOM     36  F5  UNL A   1      15.783  35.506  47.290  1.00  0.00    +0.000 F 
ATOM     26  C21 UNL A   1      17.014  36.992  48.699  1.00  0.00    +0.000 C 
ATOM     27  C22 UNL A   1      16.864  38.080  49.587  1.00  0.00    +0.000 C 
ATOM     28  F1  UNL A   1      17.906  38.837  49.954  1.00  0.00    +0.000 F 
ATOM     29  C23 UNL A   1      15.631  38.433  50.141  1.00  0.00    +0.000 C 
ATOM     30  F2  UNL A   1      15.557  39.462  50.998  1.00  0.00    +0.000 F 
ATOM     31  C24 UNL A   1      14.497  37.714  49.828  1.00  0.00    +0.000 C 
ATOM     32  F3  UNL A   1      13.325  38.010  50.408  1.00  0.00    +0.000 F 
ENDBRANCH   25   26
BRANCH   42   43
ATOM     43  C32 UNL A   1      19.662  32.655  44.292  1.00  0.00    +0.000 C 
ATOM     44  C33 UNL A   1      19.753  31.381  44.874  1.00  0.00    +0.000 C 
ATOM     45  F6  UNL A   1      20.615  31.135  45.871  1.00  0.00    +0.000 F 
ATOM     46  C34 UNL A   1      18.919  30.330  44.484  1.00  0.00    +0.000 C 
ATOM     47  F7  UNL A   1      19.071  29.120  45.040  1.00  0.00    +0.000 F 
ATOM     48  C35 UNL A   1      17.923  30.535  43.545  1.00  0.00    +0.000 C 
ATOM     49  F8  UNL A   1      17.101  29.535  43.202  1.00  0.00    +0.000 F 
ATOM     50  C36 UNL A   1      17.771  31.786  42.982  1.00  0.00    +0.000 C 
ATOM     51  F9  UNL A   1      16.781  32.011  42.108  1.00  0.00    +0.000 F 
ATOM     52  C37 UNL A   1      18.635  32.822  43.335  1.00  0.00    +0.000 C 
ATOM     53  F10 UNL A   1      18.430  34.002  42.730  1.00  0.00    +0.000 F 
ENDBRANCH   42   43
BRANCH   57   58
ATOM     65  C45 UNL A   1      28.484  34.708  46.082  1.00  0.00    +0.000 C 
ATOM     66  F14 UNL A   1      29.695  34.985  45.580  1.00  0.00    +0.000 F 
ATOM     67  C46 UNL A   1      27.387  35.493  45.720  1.00  0.00    +0.000 C 
ATOM     68  F15 UNL A   1      27.579  36.508  44.864  1.00  0.00    +0.000 F 
ATOM     58  C41 UNL A   1      26.099  35.167  46.155  1.00  0.00    +0.000 C 
ATOM     59  C42 UNL A   1      25.963  34.079  47.036  1.00  0.00    +0.000 C 
ATOM     60  F11 UNL A   1      24.747  33.724  47.483  1.00  0.00    +0.000 F 
ATOM     61  C43 UNL A   1      27.057  33.290  47.387  1.00  0.00    +0.000 C 
ATOM     62  F12 UNL A   1      26.881  32.206  48.155  1.00  0.00    +0.000 F 
ATOM     63  C44 UNL A   1      28.313  33.592  46.890  1.00  0.00    +0.000 C 
ATOM     64  F13 UNL A   1      29.353  32.794  47.162  1.00  0.00    +0.000 F 
ENDBRANCH   57   58
TORSDOF 19
ENDMDL
MODEL 10
REMARK VINA RESULT:     -11.4      1.232      2.121
ROOT
ATOM     21  C17 UNL A   1      40.634  29.235  29.409  1.00  0.00    +0.000 C 
ATOM     22  C18 UNL A   1      40.967  27.873  28.945  1.00  0.00    +0.000 C 
ATOM     23  N3  UNL A   1      41.962  27.178  29.393  1.00  0.00    +0.000 N 
ATOM     24  C19 UNL A   1      42.097  26.074  28.583  1.00  0.00    +0.000 C 
ATOM     25  C20 UNL A   1      43.246  25.337  28.621  1.00  0.00    +0.000 C 
ATOM     37  C27 UNL A   1      44.196  25.872  29.589  1.00  0.00    +0.000 C 
ATOM     38  C28 UNL A   1      45.279  26.725  29.447  1.00  0.00    +0.000 C 
ATOM     39  C29 UNL A   1      45.643  27.194  30.729  1.00  0.00    +0.000 C 
ATOM     40  C30 UNL A   1      44.788  26.621  31.653  1.00  0.00    +0.000 C 
ATOM     41  N4  UNL A   1      43.929  25.796  30.951  1.00  0.00    +0.000 N 
ATOM     42  C31 UNL A   1      44.700  26.754  33.096  1.00  0.00    +0.000 C 
ATOM     54  C38 UNL A   1      44.282  27.974  33.537  1.00  0.00    +0.000 C 
ATOM     55  N5  UNL A   1      43.706  28.886  32.693  1.00  0.00    +0.000 N 
ATOM     56  C39 UNL A   1      43.335  29.929  33.382  1.00  0.00    +0.000 C 
ATOM     57  C40 UNL A   1      42.568  31.084  32.797  1.00  0.00    +0.000 C 
ATOM     69  C47 UNL A   1      42.652  31.187  31.441  1.00  0.00    +0.000 C 
ATOM     70  C48 UNL A   1      43.684  30.583  30.616  1.00  0.00    +0.000 C 
ATOM     71  C49 UNL A   1      43.061  29.848  29.683  1.00  0.00    +0.000 C 
ATOM     72  C50 UNL A   1      41.623  30.067  29.806  1.00  0.00    +0.000 C 
ATOM     73  N6  UNL A   1      41.492  31.230  30.612  1.00  0.00    +0.000 N 
ATOM     74  C51 UNL A   1      43.685  29.826  34.795  1.00  0.00    +0.000 C 
ATOM     75  C52 UNL A   1      44.271  28.617  34.837  1.00  0.00    +0.000 C 
ATOM     76  C53 UNL A   1      40.928  26.088  27.730  1.00  0.00    +0.000 C 
ATOM     77  C54 UNL A   1      40.177  27.174  27.941  1.00  0.00    +0.000 C 
ATOM    117  H22 UNL A   1      45.740  26.975  28.558  1.00  0.00    +0.000 H 
ATOM    118  H23 UNL A   1      46.410  27.851  30.939  1.00  0.00    +0.000 H 
ATOM    119  H24 UNL A   1      43.230  25.236  31.358  1.00  0.00    +0.000 H 
ATOM    120  H25 UNL A   1      44.704  30.698  30.728  1.00  0.00    +0.000 H 
ATOM    121  H26 UNL A   1      43.521  29.231  28.995  1.00  0.00    +0.000 H 
ATOM    122  H27 UNL A   1      40.774  31.903  30.602  1.00  0.00    +0.000 H 
ATOM    123  H28 UNL A   1      43.526  30.501  35.560  1.00  0.00    +0.000 H 
ATOM    124  H29 UNL A   1      44.667  28.196  35.692  1.00  0.00    +0.000 H 
ATOM    125  H30 UNL A   1      40.702  25.351  27.044  1.00  0.00    +0.000 H 
ATOM    126  H31 UNL A   1      39.280  27.446  27.508  1.00  0.00    +0.000 H 
ENDROOT
BRANCH   21   20
ATOM     78  C55 UNL A   1      38.401  29.191  28.439  1.00  0.00    +0.000 C 
ATOM     79  C56 UNL A   1      37.187  29.801  28.185  1.00  0.00    +0.000 C 
ATOM     17  C13 UNL A   1      36.894  31.012  28.810  1.00  0.00    +0.000 C 
ATOM     18  C14 UNL A   1      37.656  31.450  29.899  1.00  0.00    +0.000 C 
ATOM     19  C15 UNL A   1      38.844  30.789  30.209  1.00  0.00    +0.000 C 
ATOM    115  H20 UNL A   1      37.343  32.253  30.466  1.00  0.00    +0.000 H 
ATOM    116  H21 UNL A   1      39.408  31.082  31.024  1.00  0.00    +0.000 H 
ATOM     20  C16 UNL A   1      39.261  29.726  29.405  1.00  0.00    +0.000 C 
ATOM    127  H32 UNL A   1      38.673  28.343  27.919  1.00  0.00    +0.000 H 
ATOM    128  H33 UNL A   1      36.508  29.368  27.541  1.00  0.00    +0.000 H 
BRANCH   17   15
ATOM     15  C12 UNL A   1      35.898  31.950  28.239  1.00  0.00    +0.000 C 
ATOM     16  O2  UNL A   1      36.012  33.149  28.422  1.00  0.00    +0.000 O 
BRANCH   15   14
ATOM    114  H19 UNL A   1      35.071  31.551  26.446  1.00  0.00    +0.000 H 
ATOM     14  N2  UNL A   1      34.906  31.452  27.411  1.00  0.00    +0.000 N 
BRANCH   14   13
ATOM    113  H18 UNL A   1      32.881  31.536  27.669  1.00  0.00    +0.000 H 
ATOM     13  C11 UNL A   1      33.653  30.802  27.771  1.00  0.00    +0.000 C 
ATOM    112  H17 UNL A   1      33.739  30.434  28.772  1.00  0.00    +0.000 H 
BRANCH   13   12
ATOM     12  C10 UNL A   1      33.280  29.637  26.862  1.00  0.00    +0.000 C 
ATOM    110  H15 UNL A   1      32.940  30.037  25.929  1.00  0.00    +0.000 H 
ATOM    111  H16 UNL A   1      34.158  29.034  26.762  1.00  0.00    +0.000 H 
BRANCH   12   11
ATOM     11  C9  UNL A   1      32.182  28.726  27.422  1.00  0.00    +0.000 C 
ATOM    108  H13 UNL A   1      32.429  28.506  28.439  1.00  0.00    +0.000 H 
ATOM    109  H14 UNL A   1      31.269  29.269  27.291  1.00  0.00    +0.000 H 
BRANCH   11   10
ATOM     10  C8  UNL A   1      31.964  27.386  26.695  1.00  0.00    +0.000 C 
ATOM    107  H12 UNL A   1      31.292  27.608  25.892  1.00  0.00    +0.000 H 
ATOM    106  H11 UNL A   1      31.587  26.687  27.412  1.00  0.00    +0.000 H 
BRANCH   10    9
ATOM      9  C7  UNL A   1      33.194  26.755  26.031  1.00  0.00    +0.000 C 
ATOM    105  H10 UNL A   1      33.511  25.965  26.680  1.00  0.00    +0.000 H 
ATOM    104  H9  UNL A   1      33.930  27.521  25.901  1.00  0.00    +0.000 H 
BRANCH    9    8
ATOM    102  H7  UNL A   1      32.450  26.822  24.039  1.00  0.00    +0.000 H 
ATOM    103  H8  UNL A   1      33.885  25.811  24.271  1.00  0.00    +0.000 H 
ATOM      8  C6  UNL A   1      32.938  26.109  24.670  1.00  0.00    +0.000 C 
BRANCH    8    7
ATOM    101  H6  UNL A   1      31.722  24.746  25.646  1.00  0.00    +0.000 H 
ATOM      7  N1  UNL A   1      32.110  24.927  24.760  1.00  0.00    +0.000 N 
BRANCH    7    5
ATOM      5  C5  UNL A   1      31.794  24.025  23.783  1.00  0.00    +0.000 C 
ATOM      6  O1  UNL A   1      30.611  23.709  23.642  1.00  0.00    +0.000 O 
BRANCH    5    4
ATOM    100  H5  UNL A   1      33.565  24.195  22.666  1.00  0.00    +0.000 H 
ATOM     99  H4  UNL A   1      32.426  22.968  22.056  1.00  0.00    +0.000 H 
ATOM      4  C4  UNL A   1      32.886  23.406  22.916  1.00  0.00    +0.000 C 
BRANCH    4    3
ATOM    129  H34 UNL A   1      35.208  23.729  24.117  1.00  0.00    +0.000 H 
ATOM      2  C2  UNL A   1      33.315  20.971  23.694  1.00  0.00    +0.000 C 
ATOM      3  C3  UNL A   1      33.704  22.333  23.617  1.00  0.00    +0.000 C 
ATOM    135  H40 UNL A   1      35.918  19.857  25.526  1.00  0.00    +0.000 H 
ATOM     80  C57 UNL A   1      34.920  22.741  24.204  1.00  0.00    +0.000 C 
ATOM     81  C58 UNL A   1      35.747  21.854  24.895  1.00  0.00    +0.000 C 
ATOM     88  C65 UNL A   1      35.330  20.523  25.000  1.00  0.00    +0.000 C 
ATOM     89  C66 UNL A   1      34.133  20.058  24.414  1.00  0.00    +0.000 C 
BRANCH    2    1
ATOM      1  C1  UNL A   1      32.080  20.478  22.971  1.00  0.00    +0.000 C 
ATOM     98  H3  UNL A   1      31.257  21.124  23.192  1.00  0.00    +0.000 H 
ATOM     97  H2  UNL A   1      32.261  20.478  21.916  1.00  0.00    +0.000 H 
ATOM     96  H1  UNL A   1      31.850  19.484  23.294  1.00  0.00    +0.000 H 
ENDBRANCH    2    1
BRANCH   81   82
ATOM    130  H35 UNL A   1      38.051  20.487  25.207  1.00  0.00    +0.000 H 
ATOM    131  H36 UNL A   1      40.122  21.230  26.219  1.00  0.00    +0.000 H 
ATOM    132  H37 UNL A   1      40.310  23.484  27.092  1.00  0.00    +0.000 H 
ATOM    133  H38 UNL A   1      38.424  25.001  26.939  1.00  0.00    +0.000 H 
ATOM    134  H39 UNL A   1      36.354  24.267  25.921  1.00  0.00    +0.000 H 
ATOM     82  C59 UNL A   1      37.018  22.310  25.479  1.00  0.00    +0.000 C 
ATOM     83  C60 UNL A   1      38.123  21.449  25.574  1.00  0.00    +0.000 C 
ATOM     84  C61 UNL A   1      39.320  21.875  26.157  1.00  0.00    +0.000 C 
ATOM     85  C62 UNL A   1      39.428  23.170  26.658  1.00  0.00    +0.000 C 
ATOM     86  C63 UNL A   1      38.345  24.040  26.570  1.00  0.00    +0.000 C 
ATOM     87  C64 UNL A   1      37.150  23.614  25.984  1.00  0.00    +0.000 C 
ENDBRANCH   81   82
BRANCH   89   90
ATOM    136  H41 UNL A   1      32.207  19.026  25.974  1.00  0.00    +0.000 H 
ATOM    137  H42 UNL A   1      31.591  16.709  26.304  1.00  0.00    +0.000 H 
ATOM    138  H43 UNL A   1      32.782  14.956  25.124  1.00  0.00    +0.000 H 
ATOM    139  H44 UNL A   1      34.616  15.525  23.643  1.00  0.00    +0.000 H 
ATOM    140  H45 UNL A   1      35.265  17.839  23.342  1.00  0.00    +0.000 H 
ATOM     90  C67 UNL A   1      33.777  18.638  24.613  1.00  0.00    +0.000 C 
ATOM     91  C68 UNL A   1      32.724  18.286  25.475  1.00  0.00    +0.000 C 
ATOM     92  C69 UNL A   1      32.365  16.949  25.665  1.00  0.00    +0.000 C 
ATOM     93  C70 UNL A   1      33.053  15.943  24.992  1.00  0.00    +0.000 C 
ATOM     94  C71 UNL A   1      34.106  16.271  24.141  1.00  0.00    +0.000 C 
ATOM     95  C72 UNL A   1      34.473  17.607  23.962  1.00  0.00    +0.000 C 
ENDBRANCH   89   90
ENDBRANCH    4    3
ENDBRANCH    5    4
ENDBRANCH    7    5
ENDBRANCH    8    7
ENDBRANCH    9    8
ENDBRANCH   10    9
ENDBRANCH   11   10
ENDBRANCH   12   11
ENDBRANCH   13   12
ENDBRANCH   14   13
ENDBRANCH   15   14
ENDBRANCH   17   15
ENDBRANCH   21   20
BRANCH   25   26
ATOM     33  C25 UNL A   1      43.271  22.228  26.341  1.00  0.00    +0.000 C 
ATOM     34  F4  UNL A   1      42.654  21.040  26.273  1.00  0.00    +0.000 F 
ATOM     35  C26 UNL A   1      43.104  23.035  27.473  1.00  0.00    +0.000 C 
ATOM     36  F5  UNL A   1      42.450  22.491  28.509  1.00  0.00    +0.000 F 
ATOM     26  C21 UNL A   1      43.625  24.338  27.549  1.00  0.00    +0.000 C 
ATOM     27  C22 UNL A   1      44.500  24.688  26.498  1.00  0.00    +0.000 C 
ATOM     28  F1  UNL A   1      45.177  25.843  26.500  1.00  0.00    +0.000 F 
ATOM     29  C23 UNL A   1      44.713  23.862  25.391  1.00  0.00    +0.000 C 
ATOM     30  F2  UNL A   1      45.539  24.260  24.412  1.00  0.00    +0.000 F 
ATOM     31  C24 UNL A   1      44.061  22.651  25.291  1.00  0.00    +0.000 C 
ATOM     32  F3  UNL A   1      44.214  21.886  24.201  1.00  0.00    +0.000 F 
ENDBRANCH   25   26
BRANCH   42   43
ATOM     43  C32 UNL A   1      45.156  25.620  33.972  1.00  0.00    +0.000 C 
ATOM     44  C33 UNL A   1      44.307  24.594  34.415  1.00  0.00    +0.000 C 
ATOM     45  F6  UNL A   1      43.008  24.577  34.085  1.00  0.00    +0.000 F 
ATOM     46  C34 UNL A   1      44.783  23.517  35.169  1.00  0.00    +0.000 C 
ATOM     47  F7  UNL A   1      43.928  22.582  35.603  1.00  0.00    +0.000 F 
ATOM     48  C35 UNL A   1      46.133  23.398  35.449  1.00  0.00    +0.000 C 
ATOM     49  F8  UNL A   1      46.590  22.346  36.139  1.00  0.00    +0.000 F 
ATOM     50  C36 UNL A   1      47.007  24.364  34.992  1.00  0.00    +0.000 C 
ATOM     51  F9  UNL A   1      48.322  24.237  35.215  1.00  0.00    +0.000 F 
ATOM     52  C37 UNL A   1      46.526  25.464  34.282  1.00  0.00    +0.000 C 
ATOM     53  F10 UNL A   1      47.438  26.365  33.887  1.00  0.00    +0.000 F 
ENDBRANCH   42   43
BRANCH   57   58
ATOM     65  C45 UNL A   1      40.226  33.224  34.843  1.00  0.00    +0.000 C 
ATOM     66  F14 UNL A   1      40.246  34.407  35.474  1.00  0.00    +0.000 F 
ATOM     67  C46 UNL A   1      41.259  32.889  33.965  1.00  0.00    +0.000 C 
ATOM     68  F15 UNL A   1      42.257  33.766  33.784  1.00  0.00    +0.000 F 
ATOM     58  C41 UNL A   1      41.309  31.625  33.369  1.00  0.00    +0.000 C 
ATOM     59  C42 UNL A   1      40.241  30.744  33.615  1.00  0.00    +0.000 C 
ATOM     60  F11 UNL A   1      40.241  29.518  33.067  1.00  0.00    +0.000 F 
ATOM     61  C43 UNL A   1      39.217  31.076  34.500  1.00  0.00    +0.000 C 
ATOM     62  F12 UNL A   1      38.262  30.180  34.785  1.00  0.00    +0.000 F 
ATOM     63  C44 UNL A   1      39.224  32.308  35.131  1.00  0.00    +0.000 C 
ATOM     64  F13 UNL A   1      38.285  32.603  36.040  1.00  0.00    +0.000 F 
ENDBRANCH   57   58
TORSDOF 19
ENDMDL
