MODEL 1
REMARK VINA RESULT:      -9.6      0.000      0.000
ROOT
ATOM    134  H36 UNL A   1       6.706  29.434  -4.771  1.00  0.00    +0.000 H 
ATOM    135  H37 UNL A   1       9.029  28.131  -4.857  1.00  0.00    +0.000 H 
ATOM    136  H38 UNL A   1       9.717  32.086  -5.045  1.00  0.00    +0.000 H 
ATOM    137  H39 UNL A   1      12.802  30.328   2.477  1.00  0.00    +0.000 H 
ATOM    138  H40 UNL A   1      10.438  29.420   2.762  1.00  0.00    +0.000 H 
ATOM    139  H41 UNL A   1      10.604  31.304  -0.938  1.00  0.00    +0.000 H 
ATOM    140  H42 UNL A   1      12.263  33.902  -1.746  1.00  0.00    +0.000 H 
ATOM    141  H43 UNL A   1      11.004  32.919  -3.768  1.00  0.00    +0.000 H 
ATOM    142  H44 UNL A   1       5.782  33.278  -1.357  1.00  0.00    +0.000 H 
ATOM    143  H45 UNL A   1       6.693  32.519   0.924  1.00  0.00    +0.000 H 
ATOM     40  C34 UNL A   1       8.603  30.399   0.726  1.00  0.00    +0.000 C 
ATOM     41  C35 UNL A   1       7.926  31.134  -0.383  1.00  0.00    +0.000 C 
ATOM     42  N5  UNL A   1       8.002  30.911  -1.657  1.00  0.00    +0.000 N 
ATOM     43  C36 UNL A   1       7.228  31.897  -2.267  1.00  0.00    +0.000 C 
ATOM     44  C37 UNL A   1       7.347  32.200  -3.590  1.00  0.00    +0.000 C 
ATOM     56  C44 UNL A   1       7.971  31.139  -4.330  1.00  0.00    +0.000 C 
ATOM     57  C45 UNL A   1       7.648  29.830  -4.621  1.00  0.00    +0.000 C 
ATOM     58  C46 UNL A   1       8.894  29.139  -4.673  1.00  0.00    +0.000 C 
ATOM     59  C47 UNL A   1       9.898  30.076  -4.429  1.00  0.00    +0.000 C 
ATOM     60  N6  UNL A   1       9.289  31.278  -4.681  1.00  0.00    +0.000 N 
ATOM     61  C48 UNL A   1      11.230  29.954  -3.891  1.00  0.00    +0.000 C 
ATOM     73  C55 UNL A   1      11.907  30.967  -3.278  1.00  0.00    +0.000 C 
ATOM     74  N7  UNL A   1      12.890  30.698  -2.339  1.00  0.00    +0.000 N 
ATOM     75  C56 UNL A   1      12.898  31.740  -1.555  1.00  0.00    +0.000 C 
ATOM     76  C57 UNL A   1      13.182  31.677  -0.100  1.00  0.00    +0.000 C 
ATOM     88  C64 UNL A   1      12.138  31.051   0.492  1.00  0.00    +0.000 C 
ATOM     89  C65 UNL A   1      12.036  30.424   1.794  1.00  0.00    +0.000 C 
ATOM     90  C66 UNL A   1      10.770  29.986   1.965  1.00  0.00    +0.000 C 
ATOM     91  C67 UNL A   1       9.944  30.438   0.847  1.00  0.00    +0.000 C 
ATOM     92  N8  UNL A   1      10.844  30.989  -0.037  1.00  0.00    +0.000 N 
ATOM     93  C68 UNL A   1      12.246  32.926  -2.083  1.00  0.00    +0.000 C 
ATOM     94  C69 UNL A   1      11.620  32.390  -3.133  1.00  0.00    +0.000 C 
ATOM     95  C70 UNL A   1       6.525  32.577  -1.209  1.00  0.00    +0.000 C 
ATOM     96  C71 UNL A   1       6.962  32.180  -0.013  1.00  0.00    +0.000 C 
ENDROOT
BRANCH   40   39
ATOM     97  C72 UNL A   1       7.212  30.268   2.813  1.00  0.00    +0.000 C 
ATOM     98  C73 UNL A   1       6.425  29.498   3.667  1.00  0.00    +0.000 C 
ATOM     36  C30 UNL A   1       6.101  28.163   3.357  1.00  0.00    +0.000 C 
ATOM     37  C31 UNL A   1       6.509  27.657   2.125  1.00  0.00    +0.000 C 
ATOM    132  H34 UNL A   1       6.197  26.717   1.830  1.00  0.00    +0.000 H 
ATOM     38  C32 UNL A   1       7.332  28.401   1.291  1.00  0.00    +0.000 C 
ATOM    133  H35 UNL A   1       7.662  27.997   0.401  1.00  0.00    +0.000 H 
ATOM     39  C33 UNL A   1       7.716  29.695   1.650  1.00  0.00    +0.000 C 
ATOM    144  H46 UNL A   1       7.418  31.253   3.041  1.00  0.00    +0.000 H 
ATOM    145  H47 UNL A   1       6.073  29.914   4.543  1.00  0.00    +0.000 H 
BRANCH   36   34
ATOM     34  C29 UNL A   1       5.398  27.387   4.417  1.00  0.00    +0.000 C 
ATOM     35  O2  UNL A   1       4.308  27.799   4.824  1.00  0.00    +0.000 O 
BRANCH   34   33
ATOM     33  N4  UNL A   1       5.893  26.269   5.031  1.00  0.00    +0.000 N 
ATOM    131  H33 UNL A   1       5.243  25.851   5.642  1.00  0.00    +0.000 H 
BRANCH   33   32
ATOM    129  H31 UNL A   1       7.888  26.204   4.544  1.00  0.00    +0.000 H 
ATOM    130  H32 UNL A   1       7.401  25.292   5.992  1.00  0.00    +0.000 H 
ATOM     32  C28 UNL A   1       7.157  25.561   4.985  1.00  0.00    +0.000 C 
BRANCH   32   31
ATOM    127  H29 UNL A   1       7.627  23.504   4.728  1.00  0.00    +0.000 H 
ATOM     31  C27 UNL A   1       7.108  24.260   4.177  1.00  0.00    +0.000 C 
ATOM    128  H30 UNL A   1       6.073  24.032   4.028  1.00  0.00    +0.000 H 
BRANCH   31   30
ATOM    126  H28 UNL A   1       8.508  25.096   2.855  1.00  0.00    +0.000 H 
ATOM    125  H27 UNL A   1       6.967  24.609   2.088  1.00  0.00    +0.000 H 
ATOM     30  C26 UNL A   1       7.739  24.355   2.785  1.00  0.00    +0.000 C 
BRANCH   30   29
ATOM    123  H25 UNL A   1       9.356  22.978   2.807  1.00  0.00    +0.000 H 
ATOM    124  H26 UNL A   1       7.743  22.273   2.503  1.00  0.00    +0.000 H 
ATOM     29  C25 UNL A   1       8.421  23.076   2.295  1.00  0.00    +0.000 C 
BRANCH   29   28
ATOM    121  H23 UNL A   1       7.774  22.813   0.284  1.00  0.00    +0.000 H 
ATOM    122  H24 UNL A   1       9.094  23.987   0.518  1.00  0.00    +0.000 H 
ATOM     28  C24 UNL A   1       8.694  23.032   0.787  1.00  0.00    +0.000 C 
BRANCH   28   27
ATOM     27  C23 UNL A   1       9.727  21.988   0.370  1.00  0.00    +0.000 C 
ATOM    119  H21 UNL A   1      10.154  21.551   1.248  1.00  0.00    +0.000 H 
ATOM    120  H22 UNL A   1       9.234  21.247  -0.223  1.00  0.00    +0.000 H 
BRANCH   27   26
ATOM     26  N3  UNL A   1      10.787  22.578  -0.426  1.00  0.00    +0.000 N 
ATOM    118  H20 UNL A   1      10.488  23.193  -1.135  1.00  0.00    +0.000 H 
BRANCH   26   24
ATOM     25  O1  UNL A   1      12.632  21.437  -0.920  1.00  0.00    +0.000 O 
ATOM     24  C22 UNL A   1      12.138  22.403  -0.333  1.00  0.00    +0.000 C 
BRANCH   24   23
ATOM    116  H18 UNL A   1      13.970  22.895   0.602  1.00  0.00    +0.000 H 
ATOM    117  H19 UNL A   1      12.982  24.277   0.065  1.00  0.00    +0.000 H 
ATOM     23  C21 UNL A   1      12.988  23.315   0.533  1.00  0.00    +0.000 C 
BRANCH   23   22
ATOM      2  C2  UNL A   1      10.452  26.667   3.676  1.00  0.00    +0.000 C 
ATOM      3  C3  UNL A   1      10.592  26.725   2.289  1.00  0.00    +0.000 C 
ATOM      4  C4  UNL A   1      11.217  25.696   1.579  1.00  0.00    +0.000 C 
ATOM      5  C5  UNL A   1      11.729  24.600   2.295  1.00  0.00    +0.000 C 
ATOM      6  C6  UNL A   1      11.567  24.494   3.678  1.00  0.00    +0.000 C 
ATOM      7  C7  UNL A   1      10.924  25.543   4.373  1.00  0.00    +0.000 C 
ATOM    102  H4  UNL A   1      10.226  27.543   1.778  1.00  0.00    +0.000 H 
ATOM    104  H6  UNL A   1      10.800  25.483   5.395  1.00  0.00    +0.000 H 
ATOM    103  H5  UNL A   1      11.301  25.741   0.552  1.00  0.00    +0.000 H 
ATOM      8  C8  UNL A   1      12.144  23.253   4.076  1.00  0.00    +0.000 C 
ATOM     20  C19 UNL A   1      12.649  22.629   2.943  1.00  0.00    +0.000 C 
ATOM     22  N2  UNL A   1      12.476  23.504   1.886  1.00  0.00    +0.000 N 
BRANCH    2    1
ATOM      1  C1  UNL A   1       9.807  27.810   4.404  1.00  0.00    +0.000 C 
ATOM     99  H1  UNL A   1       9.572  27.508   5.404  1.00  0.00    +0.000 H 
ATOM    100  H2  UNL A   1       8.911  28.097   3.897  1.00  0.00    +0.000 H 
ATOM    101  H3  UNL A   1      10.483  28.641   4.433  1.00  0.00    +0.000 H 
ENDBRANCH    2    1
BRANCH    8    9
ATOM      9  C9  UNL A   1      12.236  22.667   5.408  1.00  0.00    +0.000 C 
ATOM     10  C10 UNL A   1      11.083  22.114   5.960  1.00  0.00    +0.000 C 
ATOM     11  C11 UNL A   1      11.187  21.517   7.195  1.00  0.00    +0.000 C 
ATOM    105  H7  UNL A   1      10.182  22.151   5.458  1.00  0.00    +0.000 H 
ATOM     13  C12 UNL A   1      13.463  21.973   7.382  1.00  0.00    +0.000 C 
ATOM    106  H8  UNL A   1      10.335  21.107   7.610  1.00  0.00    +0.000 H 
ATOM     12  N1  UNL A   1      12.337  21.435   7.896  1.00  0.00    +0.000 N 
ATOM     14  C13 UNL A   1      14.674  21.891   8.088  1.00  0.00    +0.000 C 
ATOM    112  H14 UNL A   1      14.656  23.673   4.733  1.00  0.00    +0.000 H 
ATOM     18  C17 UNL A   1      14.660  23.192   5.646  1.00  0.00    +0.000 C 
ATOM     19  C18 UNL A   1      13.459  22.623   6.127  1.00  0.00    +0.000 C 
ATOM     17  C16 UNL A   1      15.846  23.122   6.363  1.00  0.00    +0.000 C 
ATOM    111  H13 UNL A   1      16.709  23.551   5.994  1.00  0.00    +0.000 H 
ATOM     16  C15 UNL A   1      15.853  22.468   7.583  1.00  0.00    +0.000 C 
ATOM    110  H12 UNL A   1      16.729  22.403   8.125  1.00  0.00    +0.000 H 
BRANCH   14   15
ATOM    107  H9  UNL A   1      15.054  20.162   9.252  1.00  0.00    +0.000 H 
ATOM    108  H10 UNL A   1      13.815  21.210   9.901  1.00  0.00    +0.000 H 
ATOM    109  H11 UNL A   1      15.498  21.663  10.027  1.00  0.00    +0.000 H 
ATOM     15  C14 UNL A   1      14.767  21.180   9.413  1.00  0.00    +0.000 C 
ENDBRANCH   14   15
ENDBRANCH    8    9
BRANCH   20   21
ATOM    113  H15 UNL A   1      12.679  20.540   3.222  1.00  0.00    +0.000 H 
ATOM    114  H16 UNL A   1      14.240  21.312   3.367  1.00  0.00    +0.000 H 
ATOM    115  H17 UNL A   1      13.517  21.091   1.792  1.00  0.00    +0.000 H 
ATOM     21  C20 UNL A   1      13.319  21.299   2.823  1.00  0.00    +0.000 C 
ENDBRANCH   20   21
ENDBRANCH   23   22
ENDBRANCH   24   23
ENDBRANCH   26   24
ENDBRANCH   27   26
ENDBRANCH   28   27
ENDBRANCH   29   28
ENDBRANCH   30   29
ENDBRANCH   31   30
ENDBRANCH   32   31
ENDBRANCH   33   32
ENDBRANCH   34   33
ENDBRANCH   36   34
ENDBRANCH   40   39
BRANCH   44   45
ATOM     45  C38 UNL A   1       7.178  33.586  -4.164  1.00  0.00    +0.000 C 
ATOM     46  C39 UNL A   1       8.063  34.614  -3.778  1.00  0.00    +0.000 C 
ATOM     47  F1  UNL A   1       9.190  34.331  -3.108  1.00  0.00    +0.000 F 
ATOM     48  C40 UNL A   1       7.767  35.963  -3.990  1.00  0.00    +0.000 C 
ATOM     49  F2  UNL A   1       8.579  36.909  -3.499  1.00  0.00    +0.000 F 
ATOM     50  C41 UNL A   1       6.606  36.331  -4.646  1.00  0.00    +0.000 C 
ATOM     51  F3  UNL A   1       6.291  37.624  -4.798  1.00  0.00    +0.000 F 
ATOM     52  C42 UNL A   1       5.746  35.353  -5.096  1.00  0.00    +0.000 C 
ATOM     53  F4  UNL A   1       4.607  35.691  -5.717  1.00  0.00    +0.000 F 
ATOM     54  C43 UNL A   1       6.013  34.007  -4.839  1.00  0.00    +0.000 C 
ATOM     55  F5  UNL A   1       5.041  33.152  -5.177  1.00  0.00    +0.000 F 
ENDBRANCH   44   45
BRANCH   61   62
ATOM     65  C51 UNL A   1      11.950  26.418  -2.603  1.00  0.00    +0.000 C 
ATOM     66  F7  UNL A   1      11.683  25.649  -1.535  1.00  0.00    +0.000 F 
ATOM     67  C52 UNL A   1      12.636  25.885  -3.681  1.00  0.00    +0.000 C 
ATOM     68  F8  UNL A   1      13.025  24.601  -3.663  1.00  0.00    +0.000 F 
ATOM     69  C53 UNL A   1      12.889  26.671  -4.794  1.00  0.00    +0.000 C 
ATOM     70  F9  UNL A   1      13.505  26.144  -5.860  1.00  0.00    +0.000 F 
ATOM     71  C54 UNL A   1      12.476  28.000  -4.820  1.00  0.00    +0.000 C 
ATOM     72  F10 UNL A   1      12.712  28.726  -5.924  1.00  0.00    +0.000 F 
ATOM     62  C49 UNL A   1      11.776  28.564  -3.745  1.00  0.00    +0.000 C 
ATOM     63  C50 UNL A   1      11.501  27.737  -2.643  1.00  0.00    +0.000 C 
ATOM     64  F6  UNL A   1      10.747  28.178  -1.626  1.00  0.00    +0.000 F 
ENDBRANCH   61   62
BRANCH   76   77
ATOM     77  C58 UNL A   1      14.226  32.510   0.540  1.00  0.00    +0.000 C 
ATOM     78  C59 UNL A   1      13.876  33.553   1.413  1.00  0.00    +0.000 C 
ATOM     79  F11 UNL A   1      12.601  33.962   1.500  1.00  0.00    +0.000 F 
ATOM     80  C60 UNL A   1      14.814  34.139   2.268  1.00  0.00    +0.000 C 
ATOM     81  F12 UNL A   1      14.429  35.081   3.138  1.00  0.00    +0.000 F 
ATOM     82  C61 UNL A   1      16.131  33.706   2.264  1.00  0.00    +0.000 C 
ATOM     83  F13 UNL A   1      17.016  34.220   3.129  1.00  0.00    +0.000 F 
ATOM     84  C62 UNL A   1      16.516  32.708   1.390  1.00  0.00    +0.000 C 
ATOM     85  F14 UNL A   1      17.778  32.258   1.399  1.00  0.00    +0.000 F 
ATOM     86  C63 UNL A   1      15.578  32.116   0.543  1.00  0.00    +0.000 C 
ATOM     87  F15 UNL A   1      15.998  31.085  -0.203  1.00  0.00    +0.000 F 
ENDBRANCH   76   77
TORSDOF 20
ENDMDL
MODEL 2
REMARK VINA RESULT:      -9.6     36.886     43.478
ROOT
ATOM    134  H36 UNL A   1       9.312  13.312  39.992  1.00  0.00    +0.000 H 
ATOM    135  H37 UNL A   1       7.455  14.035  41.761  1.00  0.00    +0.000 H 
ATOM    136  H38 UNL A   1       6.475  15.482  38.142  1.00  0.00    +0.000 H 
ATOM    137  H39 UNL A   1       0.517   9.775  39.199  1.00  0.00    +0.000 H 
ATOM    138  H40 UNL A   1       2.576   8.306  39.511  1.00  0.00    +0.000 H 
ATOM    139  H41 UNL A   1       3.905  12.076  38.376  1.00  0.00    +0.000 H 
ATOM    140  H42 UNL A   1       2.511  14.129  36.377  1.00  0.00    +0.000 H 
ATOM    141  H43 UNL A   1       4.660  15.117  37.399  1.00  0.00    +0.000 H 
ATOM    142  H44 UNL A   1       8.118  10.913  35.509  1.00  0.00    +0.000 H 
ATOM    143  H45 UNL A   1       6.359   9.115  36.042  1.00  0.00    +0.000 H 
ATOM     40  C34 UNL A   1       5.012   9.557  38.525  1.00  0.00    +0.000 C 
ATOM     41  C35 UNL A   1       6.031  10.424  37.864  1.00  0.00    +0.000 C 
ATOM     42  N5  UNL A   1       6.573  11.512  38.316  1.00  0.00    +0.000 N 
ATOM     43  C36 UNL A   1       7.420  11.966  37.306  1.00  0.00    +0.000 C 
ATOM     44  C37 UNL A   1       7.885  13.246  37.269  1.00  0.00    +0.000 C 
ATOM     56  C44 UNL A   1       7.798  13.887  38.551  1.00  0.00    +0.000 C 
ATOM     57  C45 UNL A   1       8.367  13.676  39.790  1.00  0.00    +0.000 C 
ATOM     58  C46 UNL A   1       7.373  14.072  40.732  1.00  0.00    +0.000 C 
ATOM     59  C47 UNL A   1       6.268  14.516  40.006  1.00  0.00    +0.000 C 
ATOM     60  N6  UNL A   1       6.780  14.782  38.763  1.00  0.00    +0.000 N 
ATOM     61  C48 UNL A   1       4.861  14.575  40.318  1.00  0.00    +0.000 C 
ATOM     73  C55 UNL A   1       3.866  14.579  39.385  1.00  0.00    +0.000 C 
ATOM     74  N7  UNL A   1       2.601  14.105  39.694  1.00  0.00    +0.000 N 
ATOM     75  C56 UNL A   1       2.114  13.686  38.559  1.00  0.00    +0.000 C 
ATOM     76  C57 UNL A   1       1.205  12.521  38.430  1.00  0.00    +0.000 C 
ATOM     88  C64 UNL A   1       1.927  11.409  38.704  1.00  0.00    +0.000 C 
ATOM     89  C65 UNL A   1       1.494  10.073  39.059  1.00  0.00    +0.000 C 
ATOM     90  C66 UNL A   1       2.582   9.282  39.177  1.00  0.00    +0.000 C 
ATOM     91  C67 UNL A   1       3.770  10.024  38.757  1.00  0.00    +0.000 C 
ATOM     92  N8  UNL A   1       3.317  11.311  38.575  1.00  0.00    +0.000 N 
ATOM     93  C68 UNL A   1       2.793  14.171  37.370  1.00  0.00    +0.000 C 
ATOM     94  C69 UNL A   1       3.887  14.689  37.931  1.00  0.00    +0.000 C 
ATOM     95  C70 UNL A   1       7.477  10.919  36.318  1.00  0.00    +0.000 C 
ATOM     96  C71 UNL A   1       6.590   9.960  36.587  1.00  0.00    +0.000 C 
ENDROOT
BRANCH   40   39
ATOM     97  C72 UNL A   1       4.590   7.199  39.279  1.00  0.00    +0.000 C 
ATOM     98  C73 UNL A   1       5.110   5.954  39.628  1.00  0.00    +0.000 C 
ATOM     36  C30 UNL A   1       6.488   5.682  39.521  1.00  0.00    +0.000 C 
ATOM     37  C31 UNL A   1       7.310   6.660  38.966  1.00  0.00    +0.000 C 
ATOM    132  H34 UNL A   1       8.304   6.449  38.781  1.00  0.00    +0.000 H 
ATOM     38  C32 UNL A   1       6.807   7.918  38.660  1.00  0.00    +0.000 C 
ATOM    133  H35 UNL A   1       7.436   8.646  38.290  1.00  0.00    +0.000 H 
ATOM     39  C33 UNL A   1       5.453   8.202  38.850  1.00  0.00    +0.000 C 
ATOM    144  H46 UNL A   1       3.574   7.374  39.337  1.00  0.00    +0.000 H 
ATOM    145  H47 UNL A   1       4.475   5.218  39.972  1.00  0.00    +0.000 H 
BRANCH   36   34
ATOM     34  C29 UNL A   1       6.954   4.381  40.078  1.00  0.00    +0.000 C 
ATOM     35  O2  UNL A   1       8.108   4.016  39.837  1.00  0.00    +0.000 O 
BRANCH   34   33
ATOM     33  N4  UNL A   1       6.179   3.512  40.797  1.00  0.00    +0.000 N 
ATOM    131  H33 UNL A   1       6.539   3.335  41.696  1.00  0.00    +0.000 H 
BRANCH   33   32
ATOM    129  H31 UNL A   1       4.557   3.126  39.596  1.00  0.00    +0.000 H 
ATOM    130  H32 UNL A   1       5.188   1.752  40.534  1.00  0.00    +0.000 H 
ATOM     32  C28 UNL A   1       4.947   2.794  40.535  1.00  0.00    +0.000 C 
BRANCH   32   31
ATOM    127  H29 UNL A   1       3.937   2.196  42.306  1.00  0.00    +0.000 H 
ATOM     31  C27 UNL A   1       3.871   3.001  41.605  1.00  0.00    +0.000 C 
ATOM    128  H30 UNL A   1       4.059   3.957  42.047  1.00  0.00    +0.000 H 
BRANCH   31   30
ATOM    126  H28 UNL A   1       1.867   3.601  41.776  1.00  0.00    +0.000 H 
ATOM    125  H27 UNL A   1       2.100   2.038  40.938  1.00  0.00    +0.000 H 
ATOM     30  C26 UNL A   1       2.439   3.046  41.063  1.00  0.00    +0.000 C 
BRANCH   30   29
ATOM    123  H25 UNL A   1       3.251   3.944  39.318  1.00  0.00    +0.000 H 
ATOM    124  H26 UNL A   1       1.670   3.140  39.109  1.00  0.00    +0.000 H 
ATOM     29  C25 UNL A   1       2.277   3.771  39.725  1.00  0.00    +0.000 C 
BRANCH   29   28
ATOM    121  H23 UNL A   1       1.581   5.454  40.828  1.00  0.00    +0.000 H 
ATOM    122  H24 UNL A   1       2.052   5.785  39.142  1.00  0.00    +0.000 H 
ATOM     28  C24 UNL A   1       1.549   5.119  39.811  1.00  0.00    +0.000 C 
BRANCH   28   27
ATOM     27  C23 UNL A   1       0.089   5.069  39.370  1.00  0.00    +0.000 C 
ATOM    119  H21 UNL A   1      -0.016   4.339  38.596  1.00  0.00    +0.000 H 
ATOM    120  H22 UNL A   1      -0.509   4.812  40.219  1.00  0.00    +0.000 H 
BRANCH   27   26
ATOM     26  N3  UNL A   1      -0.359   6.355  38.869  1.00  0.00    +0.000 N 
ATOM    118  H20 UNL A   1      -0.617   7.009  39.559  1.00  0.00    +0.000 H 
BRANCH   26   24
ATOM     25  O1  UNL A   1      -0.656   7.994  37.394  1.00  0.00    +0.000 O 
ATOM     24  C22 UNL A   1      -0.474   6.788  37.579  1.00  0.00    +0.000 C 
BRANCH   24   23
ATOM    116  H18 UNL A   1      -1.274   5.121  36.553  1.00  0.00    +0.000 H 
ATOM    117  H19 UNL A   1      -0.559   6.389  35.526  1.00  0.00    +0.000 H 
ATOM     23  C21 UNL A   1      -0.465   5.808  36.420  1.00  0.00    +0.000 C 
BRANCH   23   22
ATOM      2  C2  UNL A   1       4.714   6.205  35.665  1.00  0.00    +0.000 C 
ATOM      3  C3  UNL A   1       3.808   7.222  35.967  1.00  0.00    +0.000 C 
ATOM      4  C4  UNL A   1       2.466   6.940  36.238  1.00  0.00    +0.000 C 
ATOM      5  C5  UNL A   1       2.034   5.604  36.179  1.00  0.00    +0.000 C 
ATOM      6  C6  UNL A   1       2.926   4.561  35.922  1.00  0.00    +0.000 C 
ATOM      7  C7  UNL A   1       4.280   4.870  35.659  1.00  0.00    +0.000 C 
ATOM    102  H4  UNL A   1       4.134   8.200  35.991  1.00  0.00    +0.000 H 
ATOM    104  H6  UNL A   1       4.951   4.112  35.462  1.00  0.00    +0.000 H 
ATOM    103  H5  UNL A   1       1.806   7.698  36.476  1.00  0.00    +0.000 H 
ATOM      8  C8  UNL A   1       2.185   3.345  35.989  1.00  0.00    +0.000 C 
ATOM     20  C19 UNL A   1       0.864   3.661  36.278  1.00  0.00    +0.000 C 
ATOM     22  N2  UNL A   1       0.770   5.041  36.294  1.00  0.00    +0.000 N 
BRANCH    2    1
ATOM      1  C1  UNL A   1       6.138   6.553  35.344  1.00  0.00    +0.000 C 
ATOM     99  H1  UNL A   1       6.780   5.759  35.663  1.00  0.00    +0.000 H 
ATOM    100  H2  UNL A   1       6.408   7.456  35.849  1.00  0.00    +0.000 H 
ATOM    101  H3  UNL A   1       6.241   6.691  34.287  1.00  0.00    +0.000 H 
ENDBRANCH    2    1
BRANCH    8    9
ATOM      9  C9  UNL A   1       2.646   1.976  35.799  1.00  0.00    +0.000 C 
ATOM     10  C10 UNL A   1       3.051   1.261  36.923  1.00  0.00    +0.000 C 
ATOM     11  C11 UNL A   1       3.436  -0.048  36.744  1.00  0.00    +0.000 C 
ATOM    105  H7  UNL A   1       3.061   1.697  37.857  1.00  0.00    +0.000 H 
ATOM     13  C12 UNL A   1       3.061   0.005  34.447  1.00  0.00    +0.000 C 
ATOM    106  H8  UNL A   1       3.740  -0.583  37.574  1.00  0.00    +0.000 H 
ATOM     12  N1  UNL A   1       3.442  -0.675  35.549  1.00  0.00    +0.000 N 
ATOM     14  C13 UNL A   1       3.047  -0.628  33.193  1.00  0.00    +0.000 C 
ATOM    112  H14 UNL A   1       2.012   3.022  33.385  1.00  0.00    +0.000 H 
ATOM     18  C17 UNL A   1       2.297   2.032  33.332  1.00  0.00    +0.000 C 
ATOM     19  C18 UNL A   1       2.662   1.359  34.520  1.00  0.00    +0.000 C 
ATOM     17  C16 UNL A   1       2.307   1.400  32.097  1.00  0.00    +0.000 C 
ATOM    111  H13 UNL A   1       2.043   1.915  31.242  1.00  0.00    +0.000 H 
ATOM     16  C15 UNL A   1       2.679   0.069  32.028  1.00  0.00    +0.000 C 
ATOM    110  H12 UNL A   1       2.686  -0.416  31.117  1.00  0.00    +0.000 H 
BRANCH   14   15
ATOM    107  H9  UNL A   1       3.199  -2.401  32.043  1.00  0.00    +0.000 H 
ATOM    108  H10 UNL A   1       2.859  -2.667  33.736  1.00  0.00    +0.000 H 
ATOM    109  H11 UNL A   1       4.466  -2.201  33.230  1.00  0.00    +0.000 H 
ATOM     15  C14 UNL A   1       3.420  -2.079  33.039  1.00  0.00    +0.000 C 
ENDBRANCH   14   15
ENDBRANCH    8    9
BRANCH   20   21
ATOM    113  H15 UNL A   1      -0.676   2.866  37.478  1.00  0.00    +0.000 H 
ATOM    114  H16 UNL A   1       0.017   1.732  36.343  1.00  0.00    +0.000 H 
ATOM    115  H17 UNL A   1      -1.068   2.980  35.779  1.00  0.00    +0.000 H 
ATOM     21  C20 UNL A   1      -0.298   2.745  36.484  1.00  0.00    +0.000 C 
ENDBRANCH   20   21
ENDBRANCH   23   22
ENDBRANCH   24   23
ENDBRANCH   26   24
ENDBRANCH   27   26
ENDBRANCH   28   27
ENDBRANCH   29   28
ENDBRANCH   30   29
ENDBRANCH   31   30
ENDBRANCH   32   31
ENDBRANCH   33   32
ENDBRANCH   34   33
ENDBRANCH   36   34
ENDBRANCH   40   39
BRANCH   44   45
ATOM     45  C38 UNL A   1       8.136  14.024  36.000  1.00  0.00    +0.000 C 
ATOM     46  C39 UNL A   1       9.218  14.927  35.937  1.00  0.00    +0.000 C 
ATOM     47  F1  UNL A   1      10.165  14.927  36.887  1.00  0.00    +0.000 F 
ATOM     48  C40 UNL A   1       9.303  15.912  34.949  1.00  0.00    +0.000 C 
ATOM     49  F2  UNL A   1      10.283  16.824  35.000  1.00  0.00    +0.000 F 
ATOM     50  C41 UNL A   1       8.344  15.993  33.955  1.00  0.00    +0.000 C 
ATOM     51  F3  UNL A   1       8.391  16.971  33.042  1.00  0.00    +0.000 F 
ATOM     52  C42 UNL A   1       7.306  15.086  33.945  1.00  0.00    +0.000 C 
ATOM     53  F4  UNL A   1       6.356  15.161  33.001  1.00  0.00    +0.000 F 
ATOM     54  C43 UNL A   1       7.189  14.136  34.960  1.00  0.00    +0.000 C 
ATOM     55  F5  UNL A   1       6.064  13.411  34.944  1.00  0.00    +0.000 F 
ENDBRANCH   44   45
BRANCH   61   62
ATOM     65  C51 UNL A   1       4.081  12.868  43.659  1.00  0.00    +0.000 C 
ATOM     66  F7  UNL A   1       3.951  11.632  44.165  1.00  0.00    +0.000 F 
ATOM     67  C52 UNL A   1       3.994  13.968  44.497  1.00  0.00    +0.000 C 
ATOM     68  F8  UNL A   1       3.791  13.798  45.812  1.00  0.00    +0.000 F 
ATOM     69  C53 UNL A   1       4.154  15.243  43.979  1.00  0.00    +0.000 C 
ATOM     70  F9  UNL A   1       4.124  16.306  44.794  1.00  0.00    +0.000 F 
ATOM     71  C54 UNL A   1       4.377  15.422  42.616  1.00  0.00    +0.000 C 
ATOM     72  F10 UNL A   1       4.555  16.668  42.151  1.00  0.00    +0.000 F 
ATOM     62  C49 UNL A   1       4.474  14.327  41.747  1.00  0.00    +0.000 C 
ATOM     63  C50 UNL A   1       4.344  13.043  42.302  1.00  0.00    +0.000 C 
ATOM     64  F6  UNL A   1       4.529  11.949  41.549  1.00  0.00    +0.000 F 
ENDBRANCH   61   62
BRANCH   76   77
ATOM     77  C58 UNL A   1      -0.104  12.610  37.745  1.00  0.00    +0.000 C 
ATOM     78  C59 UNL A   1      -1.049  13.576  38.126  1.00  0.00    +0.000 C 
ATOM     79  F11 UNL A   1      -0.881  14.275  39.258  1.00  0.00    +0.000 F 
ATOM     80  C60 UNL A   1      -2.139  13.896  37.311  1.00  0.00    +0.000 C 
ATOM     81  F12 UNL A   1      -2.980  14.875  37.673  1.00  0.00    +0.000 F 
ATOM     82  C61 UNL A   1      -2.322  13.249  36.099  1.00  0.00    +0.000 C 
ATOM     83  F13 UNL A   1      -3.328  13.602  35.287  1.00  0.00    +0.000 F 
ATOM     84  C62 UNL A   1      -1.430  12.266  35.713  1.00  0.00    +0.000 C 
ATOM     85  F14 UNL A   1      -1.577  11.656  34.528  1.00  0.00    +0.000 F 
ATOM     86  C63 UNL A   1      -0.337  11.953  36.521  1.00  0.00    +0.000 C 
ATOM     87  F15 UNL A   1       0.542  11.065  36.036  1.00  0.00    +0.000 F 
ENDBRANCH   76   77
TORSDOF 20
ENDMDL
MODEL 3
REMARK VINA RESULT:      -9.4     11.916     18.980
ROOT
ATOM    134  H36 UNL A   1      18.581  14.786   7.827  1.00  0.00    +0.000 H 
ATOM    135  H37 UNL A   1      20.092  15.588   9.870  1.00  0.00    +0.000 H 
ATOM    136  H38 UNL A   1      22.204  13.057   7.571  1.00  0.00    +0.000 H 
ATOM    137  H39 UNL A   1      26.216  20.196   6.113  1.00  0.00    +0.000 H 
ATOM    138  H40 UNL A   1      23.852  20.894   5.467  1.00  0.00    +0.000 H 
ATOM    139  H41 UNL A   1      23.762  16.820   6.276  1.00  0.00    +0.000 H 
ATOM    140  H42 UNL A   1      26.031  14.655   5.711  1.00  0.00    +0.000 H 
ATOM    141  H43 UNL A   1      24.002  13.607   6.903  1.00  0.00    +0.000 H 
ATOM    142  H44 UNL A   1      20.181  15.125   2.866  1.00  0.00    +0.000 H 
ATOM    143  H45 UNL A   1      21.286  17.427   2.568  1.00  0.00    +0.000 H 
ATOM     40  C34 UNL A   1      22.083  18.622   5.041  1.00  0.00    +0.000 C 
ATOM     41  C35 UNL A   1      21.483  17.274   4.823  1.00  0.00    +0.000 C 
ATOM     42  N5  UNL A   1      21.126  16.401   5.713  1.00  0.00    +0.000 N 
ATOM     43  C36 UNL A   1      20.670  15.292   5.001  1.00  0.00    +0.000 C 
ATOM     44  C37 UNL A   1      20.545  14.062   5.574  1.00  0.00    +0.000 C 
ATOM     56  C44 UNL A   1      20.482  14.141   7.007  1.00  0.00    +0.000 C 
ATOM     57  C45 UNL A   1      19.606  14.696   7.917  1.00  0.00    +0.000 C 
ATOM     58  C46 UNL A   1      20.418  15.116   9.011  1.00  0.00    +0.000 C 
ATOM     59  C47 UNL A   1      21.735  14.773   8.704  1.00  0.00    +0.000 C 
ATOM     60  N6  UNL A   1      21.605  13.822   7.727  1.00  0.00    +0.000 N 
ATOM     61  C48 UNL A   1      23.003  15.319   9.123  1.00  0.00    +0.000 C 
ATOM     73  C55 UNL A   1      24.159  15.212   8.408  1.00  0.00    +0.000 C 
ATOM     74  N7  UNL A   1      25.167  16.154   8.542  1.00  0.00    +0.000 N 
ATOM     75  C56 UNL A   1      25.791  16.143   7.397  1.00  0.00    +0.000 C 
ATOM     76  C57 UNL A   1      26.401  17.345   6.776  1.00  0.00    +0.000 C 
ATOM     88  C64 UNL A   1      25.391  18.160   6.391  1.00  0.00    +0.000 C 
ATOM     89  C65 UNL A   1      25.398  19.570   6.060  1.00  0.00    +0.000 C 
ATOM     90  C66 UNL A   1      24.156  19.930   5.670  1.00  0.00    +0.000 C 
ATOM     91  C67 UNL A   1      23.311  18.740   5.582  1.00  0.00    +0.000 C 
ATOM     92  N8  UNL A   1      24.087  17.735   6.112  1.00  0.00    +0.000 N 
ATOM     93  C68 UNL A   1      25.544  14.980   6.561  1.00  0.00    +0.000 C 
ATOM     94  C69 UNL A   1      24.504  14.453   7.211  1.00  0.00    +0.000 C 
ATOM     95  C70 UNL A   1      20.598  15.694   3.619  1.00  0.00    +0.000 C 
ATOM     96  C71 UNL A   1      21.143  16.898   3.443  1.00  0.00    +0.000 C 
ENDROOT
BRANCH   40   39
ATOM     97  C72 UNL A   1      21.757  20.782   3.802  1.00  0.00    +0.000 C 
ATOM     98  C73 UNL A   1      20.924  21.853   3.485  1.00  0.00    +0.000 C 
ATOM     36  C30 UNL A   1      19.588  21.897   3.928  1.00  0.00    +0.000 C 
ATOM     37  C31 UNL A   1      19.088  20.793   4.615  1.00  0.00    +0.000 C 
ATOM    132  H34 UNL A   1      18.085  20.755   4.861  1.00  0.00    +0.000 H 
ATOM     38  C32 UNL A   1      19.923  19.745   4.975  1.00  0.00    +0.000 C 
ATOM    133  H35 UNL A   1      19.549  18.954   5.521  1.00  0.00    +0.000 H 
ATOM     39  C33 UNL A   1      21.269  19.754   4.601  1.00  0.00    +0.000 C 
ATOM    144  H46 UNL A   1      22.725  20.752   3.447  1.00  0.00    +0.000 H 
ATOM    145  H47 UNL A   1      21.293  22.630   2.915  1.00  0.00    +0.000 H 
BRANCH   36   34
ATOM     34  C29 UNL A   1      18.843  23.162   3.674  1.00  0.00    +0.000 C 
ATOM     35  O2  UNL A   1      19.278  23.939   2.818  1.00  0.00    +0.000 O 
BRANCH   34   33
ATOM     33  N4  UNL A   1      17.734  23.573   4.361  1.00  0.00    +0.000 N 
ATOM    131  H33 UNL A   1      17.913  24.344   4.947  1.00  0.00    +0.000 H 
BRANCH   33   32
ATOM    129  H31 UNL A   1      15.753  23.830   3.880  1.00  0.00    +0.000 H 
ATOM    130  H32 UNL A   1      16.324  22.148   3.996  1.00  0.00    +0.000 H 
ATOM     32  C28 UNL A   1      16.355  23.130   4.420  1.00  0.00    +0.000 C 
BRANCH   32   31
ATOM    127  H29 UNL A   1      15.304  23.932   6.084  1.00  0.00    +0.000 H 
ATOM     31  C27 UNL A   1      15.803  23.017   5.844  1.00  0.00    +0.000 C 
ATOM    128  H30 UNL A   1      15.148  22.170   5.852  1.00  0.00    +0.000 H 
BRANCH   31   30
ATOM    126  H28 UNL A   1      16.797  23.568   7.608  1.00  0.00    +0.000 H 
ATOM    125  H27 UNL A   1      17.817  22.689   6.431  1.00  0.00    +0.000 H 
ATOM     30  C26 UNL A   1      16.865  22.755   6.917  1.00  0.00    +0.000 C 
BRANCH   30   29
ATOM    123  H25 UNL A   1      15.984  20.844   7.197  1.00  0.00    +0.000 H 
ATOM    124  H26 UNL A   1      17.627  21.044   7.868  1.00  0.00    +0.000 H 
ATOM     29  C25 UNL A   1      16.658  21.479   7.734  1.00  0.00    +0.000 C 
BRANCH   29   28
ATOM    121  H23 UNL A   1      16.178  22.743   9.378  1.00  0.00    +0.000 H 
ATOM    122  H24 UNL A   1      15.069  21.373   9.115  1.00  0.00    +0.000 H 
ATOM     28  C24 UNL A   1      16.086  21.703   9.139  1.00  0.00    +0.000 C 
BRANCH   28   27
ATOM     27  C23 UNL A   1      16.785  20.898  10.233  1.00  0.00    +0.000 C 
ATOM    119  H21 UNL A   1      17.835  21.100  10.197  1.00  0.00    +0.000 H 
ATOM    120  H22 UNL A   1      16.374  21.188  11.177  1.00  0.00    +0.000 H 
BRANCH   27   26
ATOM     26  N3  UNL A   1      16.572  19.474  10.061  1.00  0.00    +0.000 N 
ATOM    118  H20 UNL A   1      17.212  19.021   9.464  1.00  0.00    +0.000 H 
BRANCH   26   24
ATOM     25  O1  UNL A   1      15.586  18.567  11.838  1.00  0.00    +0.000 O 
ATOM     24  C22 UNL A   1      15.613  18.670  10.608  1.00  0.00    +0.000 C 
BRANCH   24   23
ATOM    116  H18 UNL A   1      15.225  17.066   9.287  1.00  0.00    +0.000 H 
ATOM    117  H19 UNL A   1      13.882  17.519  10.366  1.00  0.00    +0.000 H 
ATOM     23  C21 UNL A   1      14.671  17.866   9.732  1.00  0.00    +0.000 C 
BRANCH   23   22
ATOM      2  C2  UNL A   1      15.158  19.339   4.718  1.00  0.00    +0.000 C 
ATOM      3  C3  UNL A   1      15.878  18.359   5.401  1.00  0.00    +0.000 C 
ATOM      4  C4  UNL A   1      15.562  18.011   6.717  1.00  0.00    +0.000 C 
ATOM      5  C5  UNL A   1      14.509  18.689   7.358  1.00  0.00    +0.000 C 
ATOM      6  C6  UNL A   1      13.743  19.644   6.686  1.00  0.00    +0.000 C 
ATOM      7  C7  UNL A   1      14.078  19.972   5.352  1.00  0.00    +0.000 C 
ATOM    102  H4  UNL A   1      16.659  17.880   4.925  1.00  0.00    +0.000 H 
ATOM    104  H6  UNL A   1      13.526  20.680   4.843  1.00  0.00    +0.000 H 
ATOM    103  H5  UNL A   1      16.090  17.273   7.209  1.00  0.00    +0.000 H 
ATOM      8  C8  UNL A   1      12.737  20.090   7.591  1.00  0.00    +0.000 C 
ATOM     20  C19 UNL A   1      12.904  19.411   8.791  1.00  0.00    +0.000 C 
ATOM     22  N2  UNL A   1      14.043  18.636   8.664  1.00  0.00    +0.000 N 
BRANCH    2    1
ATOM      1  C1  UNL A   1      15.554  19.709   3.318  1.00  0.00    +0.000 C 
ATOM     99  H1  UNL A   1      16.584  19.997   3.304  1.00  0.00    +0.000 H 
ATOM    100  H2  UNL A   1      14.950  20.524   2.980  1.00  0.00    +0.000 H 
ATOM    101  H3  UNL A   1      15.410  18.866   2.673  1.00  0.00    +0.000 H 
ENDBRANCH    2    1
BRANCH    8    9
ATOM      9  C9  UNL A   1      11.685  21.077   7.382  1.00  0.00    +0.000 C 
ATOM     10  C10 UNL A   1      10.449  20.629   6.924  1.00  0.00    +0.000 C 
ATOM     11  C11 UNL A   1       9.444  21.557   6.779  1.00  0.00    +0.000 C 
ATOM    105  H7  UNL A   1      10.292  19.633   6.703  1.00  0.00    +0.000 H 
ATOM     13  C12 UNL A   1      10.782  23.326   7.491  1.00  0.00    +0.000 C 
ATOM    106  H8  UNL A   1       8.526  21.231   6.437  1.00  0.00    +0.000 H 
ATOM     12  N1  UNL A   1       9.588  22.871   7.055  1.00  0.00    +0.000 N 
ATOM     14  C13 UNL A   1      10.953  24.686   7.795  1.00  0.00    +0.000 C 
ATOM    112  H14 UNL A   1      13.923  22.353   8.210  1.00  0.00    +0.000 H 
ATOM     18  C17 UNL A   1      13.117  22.988   8.094  1.00  0.00    +0.000 C 
ATOM     19  C18 UNL A   1      11.882  22.455   7.659  1.00  0.00    +0.000 C 
ATOM     17  C16 UNL A   1      13.279  24.338   8.372  1.00  0.00    +0.000 C 
ATOM    111  H13 UNL A   1      14.193  24.704   8.682  1.00  0.00    +0.000 H 
ATOM     16  C15 UNL A   1      12.195  25.186   8.226  1.00  0.00    +0.000 C 
ATOM    110  H12 UNL A   1      12.299  26.192   8.435  1.00  0.00    +0.000 H 
BRANCH   14   15
ATOM    107  H9  UNL A   1      10.183  26.592   7.281  1.00  0.00    +0.000 H 
ATOM    108  H10 UNL A   1       9.395  25.841   8.649  1.00  0.00    +0.000 H 
ATOM    109  H11 UNL A   1       9.067  25.272   7.029  1.00  0.00    +0.000 H 
ATOM     15  C14 UNL A   1       9.817  25.669   7.680  1.00  0.00    +0.000 C 
ENDBRANCH   14   15
ENDBRANCH    8    9
BRANCH   20   21
ATOM    113  H15 UNL A   1      12.661  19.971  10.808  1.00  0.00    +0.000 H 
ATOM    114  H16 UNL A   1      11.817  18.509  10.356  1.00  0.00    +0.000 H 
ATOM    115  H17 UNL A   1      11.203  20.066   9.850  1.00  0.00    +0.000 H 
ATOM     21  C20 UNL A   1      12.089  19.495  10.040  1.00  0.00    +0.000 C 
ENDBRANCH   20   21
ENDBRANCH   23   22
ENDBRANCH   24   23
ENDBRANCH   26   24
ENDBRANCH   27   26
ENDBRANCH   28   27
ENDBRANCH   29   28
ENDBRANCH   30   29
ENDBRANCH   31   30
ENDBRANCH   32   31
ENDBRANCH   33   32
ENDBRANCH   34   33
ENDBRANCH   36   34
ENDBRANCH   40   39
BRANCH   44   45
ATOM     45  C38 UNL A   1      20.790  12.758   4.853  1.00  0.00    +0.000 C 
ATOM     46  C39 UNL A   1      19.785  11.770   4.840  1.00  0.00    +0.000 C 
ATOM     47  F1  UNL A   1      18.537  12.057   5.240  1.00  0.00    +0.000 F 
ATOM     48  C40 UNL A   1      20.059  10.441   4.504  1.00  0.00    +0.000 C 
ATOM     49  F2  UNL A   1      19.101   9.512   4.622  1.00  0.00    +0.000 F 
ATOM     50  C41 UNL A   1      21.332  10.065   4.113  1.00  0.00    +0.000 C 
ATOM     51  F3  UNL A   1      21.610   8.783   3.846  1.00  0.00    +0.000 F 
ATOM     52  C42 UNL A   1      22.327  11.017   4.050  1.00  0.00    +0.000 C 
ATOM     53  F4  UNL A   1      23.571  10.667   3.693  1.00  0.00    +0.000 F 
ATOM     54  C43 UNL A   1      22.069  12.332   4.437  1.00  0.00    +0.000 C 
ATOM     55  F5  UNL A   1      23.137  13.136   4.491  1.00  0.00    +0.000 F 
ENDBRANCH   44   45
BRANCH   61   62
ATOM     65  C51 UNL A   1      22.344  18.427  11.265  1.00  0.00    +0.000 C 
ATOM     66  F7  UNL A   1      21.835  19.663  11.138  1.00  0.00    +0.000 F 
ATOM     67  C52 UNL A   1      22.740  17.970  12.512  1.00  0.00    +0.000 C 
ATOM     68  F8  UNL A   1      22.604  18.756  13.590  1.00  0.00    +0.000 F 
ATOM     69  C53 UNL A   1      23.242  16.686  12.647  1.00  0.00    +0.000 C 
ATOM     70  F9  UNL A   1      23.574  16.222  13.859  1.00  0.00    +0.000 F 
ATOM     71  C54 UNL A   1      23.371  15.864  11.531  1.00  0.00    +0.000 C 
ATOM     72  F10 UNL A   1      23.835  14.616  11.701  1.00  0.00    +0.000 F 
ATOM     62  C49 UNL A   1      22.975  16.299  10.259  1.00  0.00    +0.000 C 
ATOM     63  C50 UNL A   1      22.437  17.593  10.153  1.00  0.00    +0.000 C 
ATOM     64  F6  UNL A   1      21.942  18.035   8.988  1.00  0.00    +0.000 F 
ENDBRANCH   61   62
BRANCH   76   77
ATOM     77  C58 UNL A   1      27.816  17.381   6.344  1.00  0.00    +0.000 C 
ATOM     78  C59 UNL A   1      28.148  17.495   4.984  1.00  0.00    +0.000 C 
ATOM     79  F11 UNL A   1      27.204  17.337   4.044  1.00  0.00    +0.000 F 
ATOM     80  C60 UNL A   1      29.436  17.850   4.572  1.00  0.00    +0.000 C 
ATOM     81  F12 UNL A   1      29.697  18.020   3.269  1.00  0.00    +0.000 F 
ATOM     82  C61 UNL A   1      30.430  18.088   5.507  1.00  0.00    +0.000 C 
ATOM     83  F13 UNL A   1      31.646  18.493   5.116  1.00  0.00    +0.000 F 
ATOM     84  C62 UNL A   1      30.145  17.948   6.852  1.00  0.00    +0.000 C 
ATOM     85  F14 UNL A   1      31.089  18.207   7.768  1.00  0.00    +0.000 F 
ATOM     86  C63 UNL A   1      28.858  17.603   7.265  1.00  0.00    +0.000 C 
ATOM     87  F15 UNL A   1      28.628  17.585   8.585  1.00  0.00    +0.000 F 
ENDBRANCH   76   77
TORSDOF 20
ENDMDL
MODEL 4
REMARK VINA RESULT:      -9.4      1.716      4.239
ROOT
ATOM    134  H36 UNL A   1       6.513  29.682  -4.772  1.00  0.00    +0.000 H 
ATOM    135  H37 UNL A   1       8.866  28.506  -5.194  1.00  0.00    +0.000 H 
ATOM    136  H38 UNL A   1       9.402  32.477  -4.892  1.00  0.00    +0.000 H 
ATOM    137  H39 UNL A   1      13.099  29.876   2.090  1.00  0.00    +0.000 H 
ATOM    138  H40 UNL A   1      10.795  28.834   2.412  1.00  0.00    +0.000 H 
ATOM    139  H41 UNL A   1      10.619  31.198  -1.001  1.00  0.00    +0.000 H 
ATOM    140  H42 UNL A   1      12.123  33.951  -1.563  1.00  0.00    +0.000 H 
ATOM    141  H43 UNL A   1      10.750  33.190  -3.607  1.00  0.00    +0.000 H 
ATOM    142  H44 UNL A   1       5.714  32.995  -0.813  1.00  0.00    +0.000 H 
ATOM    143  H45 UNL A   1       6.819  31.981   1.275  1.00  0.00    +0.000 H 
ATOM     40  C34 UNL A   1       8.780  29.993   0.660  1.00  0.00    +0.000 C 
ATOM     41  C35 UNL A   1       7.997  30.838  -0.289  1.00  0.00    +0.000 C 
ATOM     42  N5  UNL A   1       7.986  30.788  -1.585  1.00  0.00    +0.000 N 
ATOM     43  C36 UNL A   1       7.135  31.811  -2.000  1.00  0.00    +0.000 C 
ATOM     44  C37 UNL A   1       7.144  32.292  -3.274  1.00  0.00    +0.000 C 
ATOM     56  C44 UNL A   1       7.747  31.368  -4.193  1.00  0.00    +0.000 C 
ATOM     57  C45 UNL A   1       7.449  30.095  -4.636  1.00  0.00    +0.000 C 
ATOM     58  C46 UNL A   1       8.711  29.473  -4.867  1.00  0.00    +0.000 C 
ATOM     59  C47 UNL A   1       9.697  30.414  -4.569  1.00  0.00    +0.000 C 
ATOM     60  N6  UNL A   1       9.030  31.610  -4.613  1.00  0.00    +0.000 N 
ATOM     61  C48 UNL A   1      11.069  30.281  -4.146  1.00  0.00    +0.000 C 
ATOM     73  C55 UNL A   1      11.755  31.232  -3.450  1.00  0.00    +0.000 C 
ATOM     74  N7  UNL A   1      12.814  30.885  -2.626  1.00  0.00    +0.000 N 
ATOM     75  C56 UNL A   1      12.844  31.813  -1.711  1.00  0.00    +0.000 C 
ATOM     76  C57 UNL A   1      13.239  31.570  -0.301  1.00  0.00    +0.000 C 
ATOM     88  C64 UNL A   1      12.264  30.825   0.272  1.00  0.00    +0.000 C 
ATOM     89  C65 UNL A   1      12.281  30.028   1.480  1.00  0.00    +0.000 C 
ATOM     90  C66 UNL A   1      11.047  29.515   1.679  1.00  0.00    +0.000 C 
ATOM     91  C67 UNL A   1      10.125  30.074   0.692  1.00  0.00    +0.000 C 
ATOM     92  N8  UNL A   1      10.936  30.777  -0.169  1.00  0.00    +0.000 N 
ATOM     93  C68 UNL A   1      12.114  33.029  -2.027  1.00  0.00    +0.000 C 
ATOM     94  C69 UNL A   1      11.431  32.609  -3.093  1.00  0.00    +0.000 C 
ATOM     95  C70 UNL A   1       6.490  32.314  -0.813  1.00  0.00    +0.000 C 
ATOM     96  C71 UNL A   1       7.029  31.782   0.284  1.00  0.00    +0.000 C 
ENDROOT
BRANCH   40   39
ATOM     97  C72 UNL A   1       7.790  27.777   1.308  1.00  0.00    +0.000 C 
ATOM     98  C73 UNL A   1       6.968  27.052   2.167  1.00  0.00    +0.000 C 
ATOM     36  C30 UNL A   1       6.363  27.659   3.285  1.00  0.00    +0.000 C 
ATOM     37  C31 UNL A   1       6.684  28.984   3.567  1.00  0.00    +0.000 C 
ATOM    132  H34 UNL A   1       6.337  29.421   4.436  1.00  0.00    +0.000 H 
ATOM     38  C32 UNL A   1       7.465  29.726   2.691  1.00  0.00    +0.000 C 
ATOM    133  H35 UNL A   1       7.659  30.719   2.890  1.00  0.00    +0.000 H 
ATOM     39  C33 UNL A   1       7.990  29.134   1.539  1.00  0.00    +0.000 C 
ATOM    144  H46 UNL A   1       8.248  27.312   0.508  1.00  0.00    +0.000 H 
ATOM    145  H47 UNL A   1       6.797  26.052   1.980  1.00  0.00    +0.000 H 
BRANCH   36   34
ATOM     34  C29 UNL A   1       5.374  26.834   4.035  1.00  0.00    +0.000 C 
ATOM     35  O2  UNL A   1       5.102  27.151   5.197  1.00  0.00    +0.000 O 
BRANCH   34   33
ATOM     33  N4  UNL A   1       4.775  25.699   3.558  1.00  0.00    +0.000 N 
ATOM    131  H33 UNL A   1       3.905  25.878   3.133  1.00  0.00    +0.000 H 
BRANCH   33   32
ATOM    129  H31 UNL A   1       4.407  23.771   2.951  1.00  0.00    +0.000 H 
ATOM    130  H32 UNL A   1       6.118  24.230   3.125  1.00  0.00    +0.000 H 
ATOM     32  C28 UNL A   1       5.133  24.295   3.537  1.00  0.00    +0.000 C 
BRANCH   32   31
ATOM    127  H29 UNL A   1       4.421  24.086   5.528  1.00  0.00    +0.000 H 
ATOM     31  C27 UNL A   1       5.189  23.650   4.925  1.00  0.00    +0.000 C 
ATOM    128  H30 UNL A   1       5.057  22.598   4.779  1.00  0.00    +0.000 H 
BRANCH   31   30
ATOM    126  H28 UNL A   1       6.315  24.399   6.530  1.00  0.00    +0.000 H 
ATOM    125  H27 UNL A   1       7.206  24.308   4.982  1.00  0.00    +0.000 H 
ATOM     30  C26 UNL A   1       6.526  23.825   5.652  1.00  0.00    +0.000 C 
BRANCH   30   29
ATOM    123  H25 UNL A   1       6.576  22.128   6.927  1.00  0.00    +0.000 H 
ATOM    124  H26 UNL A   1       7.227  21.879   5.282  1.00  0.00    +0.000 H 
ATOM     29  C25 UNL A   1       7.174  22.526   6.134  1.00  0.00    +0.000 C 
BRANCH   29   28
ATOM    121  H23 UNL A   1       9.075  21.715   6.646  1.00  0.00    +0.000 H 
ATOM    122  H24 UNL A   1       9.099  23.375   6.000  1.00  0.00    +0.000 H 
ATOM     28  C24 UNL A   1       8.611  22.680   6.649  1.00  0.00    +0.000 C 
BRANCH   28   27
ATOM     27  C23 UNL A   1       8.709  23.253   8.062  1.00  0.00    +0.000 C 
ATOM    119  H21 UNL A   1       7.826  22.990   8.605  1.00  0.00    +0.000 H 
ATOM    120  H22 UNL A   1       9.579  22.844   8.529  1.00  0.00    +0.000 H 
BRANCH   27   26
ATOM     26  N3  UNL A   1       8.838  24.697   8.041  1.00  0.00    +0.000 N 
ATOM    118  H20 UNL A   1       8.121  25.177   7.565  1.00  0.00    +0.000 H 
BRANCH   26   24
ATOM     25  O1  UNL A   1       9.736  25.735   9.791  1.00  0.00    +0.000 O 
ATOM     24  C22 UNL A   1       9.810  25.486   8.585  1.00  0.00    +0.000 C 
BRANCH   24   23
ATOM    116  H18 UNL A   1      10.627  27.122   7.524  1.00  0.00    +0.000 H 
ATOM    117  H19 UNL A   1      11.810  26.016   8.265  1.00  0.00    +0.000 H 
ATOM     23  C21 UNL A   1      10.893  26.105   7.720  1.00  0.00    +0.000 C 
BRANCH   23   22
ATOM      2  C2  UNL A   1      13.666  22.367   5.295  1.00  0.00    +0.000 C 
ATOM      3  C3  UNL A   1      13.570  22.616   6.665  1.00  0.00    +0.000 C 
ATOM      4  C4  UNL A   1      12.706  23.594   7.166  1.00  0.00    +0.000 C 
ATOM      5  C5  UNL A   1      11.943  24.347   6.255  1.00  0.00    +0.000 C 
ATOM      6  C6  UNL A   1      11.986  24.091   4.884  1.00  0.00    +0.000 C 
ATOM      7  C7  UNL A   1      12.862  23.091   4.402  1.00  0.00    +0.000 C 
ATOM    102  H4  UNL A   1      14.148  22.068   7.321  1.00  0.00    +0.000 H 
ATOM    104  H6  UNL A   1      12.910  22.894   3.391  1.00  0.00    +0.000 H 
ATOM    103  H5  UNL A   1      12.631  23.760   8.181  1.00  0.00    +0.000 H 
ATOM      8  C8  UNL A   1      11.064  24.980   4.260  1.00  0.00    +0.000 C 
ATOM     20  C19 UNL A   1      10.481  25.761   5.249  1.00  0.00    +0.000 C 
ATOM     22  N2  UNL A   1      11.097  25.430   6.443  1.00  0.00    +0.000 N 
BRANCH    2    1
ATOM      1  C1  UNL A   1      14.634  21.334   4.796  1.00  0.00    +0.000 C 
ATOM     99  H1  UNL A   1      14.250  20.357   5.002  1.00  0.00    +0.000 H 
ATOM    100  H2  UNL A   1      15.575  21.458   5.289  1.00  0.00    +0.000 H 
ATOM    101  H3  UNL A   1      14.766  21.450   3.740  1.00  0.00    +0.000 H 
ENDBRANCH    2    1
BRANCH    8    9
ATOM      9  C9  UNL A   1      10.731  25.118   2.847  1.00  0.00    +0.000 C 
ATOM     10  C10 UNL A   1      11.455  26.037   2.092  1.00  0.00    +0.000 C 
ATOM     11  C11 UNL A   1      11.172  26.126   0.748  1.00  0.00    +0.000 C 
ATOM    105  H7  UNL A   1      12.178  26.631   2.526  1.00  0.00    +0.000 H 
ATOM     13  C12 UNL A   1       9.524  24.484   0.841  1.00  0.00    +0.000 C 
ATOM    106  H8  UNL A   1      11.704  26.807   0.183  1.00  0.00    +0.000 H 
ATOM     12  N1  UNL A   1      10.241  25.374   0.124  1.00  0.00    +0.000 N 
ATOM     14  C13 UNL A   1       8.556  23.683   0.213  1.00  0.00    +0.000 C 
ATOM    112  H14 UNL A   1       9.073  23.290   3.956  1.00  0.00    +0.000 H 
ATOM     18  C17 UNL A   1       8.930  23.399   2.940  1.00  0.00    +0.000 C 
ATOM     19  C18 UNL A   1       9.726  24.327   2.231  1.00  0.00    +0.000 C 
ATOM     17  C16 UNL A   1       7.963  22.628   2.310  1.00  0.00    +0.000 C 
ATOM    111  H13 UNL A   1       7.390  21.961   2.851  1.00  0.00    +0.000 H 
ATOM     16  C15 UNL A   1       7.780  22.767   0.946  1.00  0.00    +0.000 C 
ATOM    110  H12 UNL A   1       7.068  22.196   0.463  1.00  0.00    +0.000 H 
BRANCH   14   15
ATOM    107  H9  UNL A   1       7.332  24.159  -1.450  1.00  0.00    +0.000 H 
ATOM    108  H10 UNL A   1       8.382  22.783  -1.698  1.00  0.00    +0.000 H 
ATOM    109  H11 UNL A   1       9.041  24.401  -1.720  1.00  0.00    +0.000 H 
ATOM     15  C14 UNL A   1       8.310  23.763  -1.271  1.00  0.00    +0.000 C 
ENDBRANCH   14   15
ENDBRANCH    8    9
BRANCH   20   21
ATOM    113  H15 UNL A   1       9.121  27.135   6.091  1.00  0.00    +0.000 H 
ATOM    114  H16 UNL A   1       8.590  26.418   4.588  1.00  0.00    +0.000 H 
ATOM    115  H17 UNL A   1       9.830  27.651   4.579  1.00  0.00    +0.000 H 
ATOM     21  C20 UNL A   1       9.431  26.816   5.118  1.00  0.00    +0.000 C 
ENDBRANCH   20   21
ENDBRANCH   23   22
ENDBRANCH   24   23
ENDBRANCH   26   24
ENDBRANCH   27   26
ENDBRANCH   28   27
ENDBRANCH   29   28
ENDBRANCH   30   29
ENDBRANCH   31   30
ENDBRANCH   32   31
ENDBRANCH   33   32
ENDBRANCH   34   33
ENDBRANCH   36   34
ENDBRANCH   40   39
BRANCH   44   45
ATOM     45  C38 UNL A   1       6.885  33.733  -3.643  1.00  0.00    +0.000 C 
ATOM     46  C39 UNL A   1       5.786  34.056  -4.464  1.00  0.00    +0.000 C 
ATOM     47  F1  UNL A   1       4.833  33.148  -4.721  1.00  0.00    +0.000 F 
ATOM     48  C40 UNL A   1       5.687  35.289  -5.116  1.00  0.00    +0.000 C 
ATOM     49  F2  UNL A   1       4.688  35.507  -5.981  1.00  0.00    +0.000 F 
ATOM     50  C41 UNL A   1       6.650  36.263  -4.924  1.00  0.00    +0.000 C 
ATOM     51  F3  UNL A   1       6.588  37.422  -5.591  1.00  0.00    +0.000 F 
ATOM     52  C42 UNL A   1       7.707  36.009  -4.076  1.00  0.00    +0.000 C 
ATOM     53  F4  UNL A   1       8.661  36.933  -3.893  1.00  0.00    +0.000 F 
ATOM     54  C43 UNL A   1       7.837  34.760  -3.467  1.00  0.00    +0.000 C 
ATOM     55  F5  UNL A   1       8.976  34.564  -2.794  1.00  0.00    +0.000 F 
ENDBRANCH   44   45
BRANCH   61   62
ATOM     65  C51 UNL A   1      12.033  26.651  -3.382  1.00  0.00    +0.000 C 
ATOM     66  F7  UNL A   1      11.903  25.749  -2.397  1.00  0.00    +0.000 F 
ATOM     67  C52 UNL A   1      12.621  26.282  -4.582  1.00  0.00    +0.000 C 
ATOM     68  F8  UNL A   1      13.050  25.024  -4.761  1.00  0.00    +0.000 F 
ATOM     69  C53 UNL A   1      12.732  27.207  -5.608  1.00  0.00    +0.000 C 
ATOM     70  F9  UNL A   1      13.251  26.839  -6.787  1.00  0.00    +0.000 F 
ATOM     71  C54 UNL A   1      12.275  28.510  -5.428  1.00  0.00    +0.000 C 
ATOM     72  F10 UNL A   1      12.371  29.373  -6.451  1.00  0.00    +0.000 F 
ATOM     62  C49 UNL A   1      11.672  28.908  -4.227  1.00  0.00    +0.000 C 
ATOM     63  C50 UNL A   1      11.539  27.943  -3.214  1.00  0.00    +0.000 C 
ATOM     64  F6  UNL A   1      10.881  28.226  -2.081  1.00  0.00    +0.000 F 
ENDBRANCH   61   62
BRANCH   76   77
ATOM     77  C58 UNL A   1      14.298  32.356   0.372  1.00  0.00    +0.000 C 
ATOM     78  C59 UNL A   1      13.968  33.422   1.225  1.00  0.00    +0.000 C 
ATOM     79  F11 UNL A   1      12.712  33.893   1.262  1.00  0.00    +0.000 F 
ATOM     80  C60 UNL A   1      14.902  33.968   2.110  1.00  0.00    +0.000 C 
ATOM     81  F12 UNL A   1      14.531  34.935   2.960  1.00  0.00    +0.000 F 
ATOM     82  C61 UNL A   1      16.195  33.472   2.157  1.00  0.00    +0.000 C 
ATOM     83  F13 UNL A   1      17.072  33.949   3.052  1.00  0.00    +0.000 F 
ATOM     84  C62 UNL A   1      16.562  32.448   1.304  1.00  0.00    +0.000 C 
ATOM     85  F14 UNL A   1      17.800  31.938   1.363  1.00  0.00    +0.000 F 
ATOM     86  C63 UNL A   1      15.627  31.897   0.427  1.00  0.00    +0.000 C 
ATOM     87  F15 UNL A   1      16.024  30.840  -0.297  1.00  0.00    +0.000 F 
ENDBRANCH   76   77
TORSDOF 20
ENDMDL
MODEL 5
REMARK VINA RESULT:      -9.4     19.595     25.425
ROOT
ATOM    134  H36 UNL A   1      12.354  55.265   8.896  1.00  0.00    +0.000 H 
ATOM    135  H37 UNL A   1      14.294  53.441   8.989  1.00  0.00    +0.000 H 
ATOM    136  H38 UNL A   1      13.320  54.535  12.732  1.00  0.00    +0.000 H 
ATOM    137  H39 UNL A   1      10.507  46.708  12.618  1.00  0.00    +0.000 H 
ATOM    138  H40 UNL A   1       9.250  47.644  10.609  1.00  0.00    +0.000 H 
ATOM    139  H41 UNL A   1      11.242  50.814  12.408  1.00  0.00    +0.000 H 
ATOM    140  H42 UNL A   1      11.803  51.274  15.511  1.00  0.00    +0.000 H 
ATOM    141  H43 UNL A   1      12.862  53.133  14.075  1.00  0.00    +0.000 H 
ATOM    142  H44 UNL A   1       7.918  54.768  11.608  1.00  0.00    +0.000 H 
ATOM    143  H45 UNL A   1       7.137  52.330  11.367  1.00  0.00    +0.000 H 
ATOM     40  C34 UNL A   1       9.224  50.554  10.551  1.00  0.00    +0.000 C 
ATOM     41  C35 UNL A   1       9.324  52.011  10.859  1.00  0.00    +0.000 C 
ATOM     42  N5  UNL A   1      10.357  52.785  10.743  1.00  0.00    +0.000 N 
ATOM     43  C36 UNL A   1       9.950  54.038  11.202  1.00  0.00    +0.000 C 
ATOM     44  C37 UNL A   1      10.840  55.005  11.560  1.00  0.00    +0.000 C 
ATOM     56  C44 UNL A   1      12.141  54.773  10.997  1.00  0.00    +0.000 C 
ATOM     57  C45 UNL A   1      12.656  54.719   9.718  1.00  0.00    +0.000 C 
ATOM     58  C46 UNL A   1      13.699  53.747   9.775  1.00  0.00    +0.000 C 
ATOM     59  C47 UNL A   1      13.763  53.286  11.090  1.00  0.00    +0.000 C 
ATOM     60  N6  UNL A   1      13.119  54.258  11.809  1.00  0.00    +0.000 N 
ATOM     61  C48 UNL A   1      14.220  52.043  11.662  1.00  0.00    +0.000 C 
ATOM     73  C55 UNL A   1      13.801  51.548  12.861  1.00  0.00    +0.000 C 
ATOM     74  N7  UNL A   1      13.823  50.186  13.115  1.00  0.00    +0.000 N 
ATOM     75  C56 UNL A   1      12.874  49.992  13.987  1.00  0.00    +0.000 C 
ATOM     76  C57 UNL A   1      12.038  48.767  14.040  1.00  0.00    +0.000 C 
ATOM     88  C64 UNL A   1      11.239  48.772  12.947  1.00  0.00    +0.000 C 
ATOM     89  C65 UNL A   1      10.498  47.696  12.322  1.00  0.00    +0.000 C 
ATOM     90  C66 UNL A   1       9.793  48.200  11.287  1.00  0.00    +0.000 C 
ATOM     91  C67 UNL A   1       9.920  49.656  11.276  1.00  0.00    +0.000 C 
ATOM     92  N8  UNL A   1      10.868  49.920  12.238  1.00  0.00    +0.000 N 
ATOM     93  C68 UNL A   1      12.406  51.181  14.678  1.00  0.00    +0.000 C 
ATOM     94  C69 UNL A   1      12.982  52.120  13.924  1.00  0.00    +0.000 C 
ATOM     95  C70 UNL A   1       8.523  53.961  11.389  1.00  0.00    +0.000 C 
ATOM     96  C71 UNL A   1       8.089  52.709  11.244  1.00  0.00    +0.000 C 
ENDROOT
BRANCH   40   39
ATOM     97  C72 UNL A   1       6.943  50.033   9.637  1.00  0.00    +0.000 C 
ATOM     98  C73 UNL A   1       6.163  49.632   8.554  1.00  0.00    +0.000 C 
ATOM     36  C30 UNL A   1       6.729  49.427   7.281  1.00  0.00    +0.000 C 
ATOM     37  C31 UNL A   1       8.078  49.728   7.106  1.00  0.00    +0.000 C 
ATOM    132  H34 UNL A   1       8.493  49.686   6.161  1.00  0.00    +0.000 H 
ATOM     38  C32 UNL A   1       8.871  50.083   8.189  1.00  0.00    +0.000 C 
ATOM    133  H35 UNL A   1       9.877  50.261   8.051  1.00  0.00    +0.000 H 
ATOM     39  C33 UNL A   1       8.313  50.200   9.464  1.00  0.00    +0.000 C 
ATOM    144  H46 UNL A   1       6.509  50.204  10.557  1.00  0.00    +0.000 H 
ATOM    145  H47 UNL A   1       5.151  49.481   8.688  1.00  0.00    +0.000 H 
BRANCH   36   34
ATOM     34  C29 UNL A   1       5.836  48.840   6.243  1.00  0.00    +0.000 C 
ATOM     35  O2  UNL A   1       6.208  48.859   5.066  1.00  0.00    +0.000 O 
BRANCH   34   33
ATOM     33  N4  UNL A   1       4.590  48.325   6.479  1.00  0.00    +0.000 N 
ATOM    131  H33 UNL A   1       3.886  49.014   6.464  1.00  0.00    +0.000 H 
BRANCH   33   32
ATOM    129  H31 UNL A   1       3.352  47.067   7.530  1.00  0.00    +0.000 H 
ATOM    130  H32 UNL A   1       3.650  46.640   5.828  1.00  0.00    +0.000 H 
ATOM     32  C28 UNL A   1       4.073  46.997   6.743  1.00  0.00    +0.000 C 
BRANCH   32   31
ATOM    127  H29 UNL A   1       4.818  45.012   6.873  1.00  0.00    +0.000 H 
ATOM     31  C27 UNL A   1       5.146  45.988   7.161  1.00  0.00    +0.000 C 
ATOM    128  H30 UNL A   1       6.051  46.285   6.673  1.00  0.00    +0.000 H 
BRANCH   31   30
ATOM    126  H28 UNL A   1       5.152  45.002   9.014  1.00  0.00    +0.000 H 
ATOM    125  H27 UNL A   1       4.906  46.770   9.120  1.00  0.00    +0.000 H 
ATOM     30  C26 UNL A   1       5.447  45.968   8.663  1.00  0.00    +0.000 C 
BRANCH   30   29
ATOM    123  H25 UNL A   1       7.063  47.093   9.460  1.00  0.00    +0.000 H 
ATOM    124  H26 UNL A   1       7.156  45.326   9.703  1.00  0.00    +0.000 H 
ATOM     29  C25 UNL A   1       6.925  46.124   9.028  1.00  0.00    +0.000 C 
BRANCH   29   28
ATOM    121  H23 UNL A   1       7.802  44.995   7.450  1.00  0.00    +0.000 H 
ATOM    122  H24 UNL A   1       7.629  46.740   7.138  1.00  0.00    +0.000 H 
ATOM     28  C24 UNL A   1       7.895  45.985   7.847  1.00  0.00    +0.000 C 
BRANCH   28   27
ATOM     27  C23 UNL A   1       9.359  46.218   8.212  1.00  0.00    +0.000 C 
ATOM    119  H21 UNL A   1       9.634  47.211   7.928  1.00  0.00    +0.000 H 
ATOM    120  H22 UNL A   1       9.467  46.080   9.267  1.00  0.00    +0.000 H 
BRANCH   27   26
ATOM     26  N3  UNL A   1      10.230  45.275   7.537  1.00  0.00    +0.000 N 
ATOM    118  H20 UNL A   1       9.818  44.411   7.305  1.00  0.00    +0.000 H 
BRANCH   26   24
ATOM     25  O1  UNL A   1      12.373  45.533   8.080  1.00  0.00    +0.000 O 
ATOM     24  C22 UNL A   1      11.540  45.414   7.177  1.00  0.00    +0.000 C 
BRANCH   24   23
ATOM    116  H18 UNL A   1      12.831  44.920   5.576  1.00  0.00    +0.000 H 
ATOM    117  H19 UNL A   1      11.117  45.144   5.144  1.00  0.00    +0.000 H 
ATOM     23  C21 UNL A   1      11.946  45.505   5.717  1.00  0.00    +0.000 C 
BRANCH   23   22
ATOM      2  C2  UNL A   1      15.722  49.097   5.094  1.00  0.00    +0.000 C 
ATOM      3  C3  UNL A   1      15.864  47.739   5.382  1.00  0.00    +0.000 C 
ATOM      4  C4  UNL A   1      14.758  46.885   5.420  1.00  0.00    +0.000 C 
ATOM      5  C5  UNL A   1      13.482  47.427   5.183  1.00  0.00    +0.000 C 
ATOM      6  C6  UNL A   1      13.313  48.773   4.850  1.00  0.00    +0.000 C 
ATOM      7  C7  UNL A   1      14.449  49.614   4.810  1.00  0.00    +0.000 C 
ATOM    102  H4  UNL A   1      16.805  47.357   5.570  1.00  0.00    +0.000 H 
ATOM    104  H6  UNL A   1      14.341  50.612   4.572  1.00  0.00    +0.000 H 
ATOM    103  H5  UNL A   1      14.875  45.880   5.618  1.00  0.00    +0.000 H 
ATOM      8  C8  UNL A   1      11.922  48.979   4.621  1.00  0.00    +0.000 C 
ATOM     20  C19 UNL A   1      11.268  47.770   4.820  1.00  0.00    +0.000 C 
ATOM     22  N2  UNL A   1      12.217  46.862   5.255  1.00  0.00    +0.000 N 
BRANCH    2    1
ATOM      1  C1  UNL A   1      16.931  49.986   5.100  1.00  0.00    +0.000 C 
ATOM     99  H1  UNL A   1      17.155  50.276   6.105  1.00  0.00    +0.000 H 
ATOM    100  H2  UNL A   1      16.736  50.857   4.512  1.00  0.00    +0.000 H 
ATOM    101  H3  UNL A   1      17.765  49.456   4.688  1.00  0.00    +0.000 H 
ENDBRANCH    2    1
BRANCH    8    9
ATOM      9  C9  UNL A   1      11.223  50.202   4.247  1.00  0.00    +0.000 C 
ATOM     10  C10 UNL A   1      10.704  50.290   2.958  1.00  0.00    +0.000 C 
ATOM     11  C11 UNL A   1      10.001  51.425   2.627  1.00  0.00    +0.000 C 
ATOM    105  H7  UNL A   1      10.841  49.528   2.275  1.00  0.00    +0.000 H 
ATOM     13  C12 UNL A   1      10.289  52.389   4.727  1.00  0.00    +0.000 C 
ATOM    106  H8  UNL A   1       9.615  51.497   1.672  1.00  0.00    +0.000 H 
ATOM     12  N1  UNL A   1       9.786  52.452   3.476  1.00  0.00    +0.000 N 
ATOM     14  C13 UNL A   1      10.070  53.439   5.633  1.00  0.00    +0.000 C 
ATOM    112  H14 UNL A   1      12.120  50.457   6.787  1.00  0.00    +0.000 H 
ATOM     18  C17 UNL A   1      11.566  51.268   6.473  1.00  0.00    +0.000 C 
ATOM     19  C18 UNL A   1      11.040  51.272   5.161  1.00  0.00    +0.000 C 
ATOM     17  C16 UNL A   1      11.359  52.322   7.351  1.00  0.00    +0.000 C 
ATOM    111  H13 UNL A   1      11.760  52.299   8.302  1.00  0.00    +0.000 H 
ATOM     16  C15 UNL A   1      10.607  53.406   6.932  1.00  0.00    +0.000 C 
ATOM    110  H12 UNL A   1      10.440  54.195   7.577  1.00  0.00    +0.000 H 
BRANCH   14   15
ATOM    107  H9  UNL A   1       8.540  54.373   4.502  1.00  0.00    +0.000 H 
ATOM    108  H10 UNL A   1       9.891  55.414   4.884  1.00  0.00    +0.000 H 
ATOM    109  H11 UNL A   1       8.726  55.003   6.121  1.00  0.00    +0.000 H 
ATOM     15  C14 UNL A   1       9.247  54.644   5.258  1.00  0.00    +0.000 C 
ENDBRANCH   14   15
ENDBRANCH    8    9
BRANCH   20   21
ATOM    113  H15 UNL A   1       9.657  46.412   4.870  1.00  0.00    +0.000 H 
ATOM    114  H16 UNL A   1       9.501  47.677   3.675  1.00  0.00    +0.000 H 
ATOM    115  H17 UNL A   1       9.250  48.037   5.367  1.00  0.00    +0.000 H 
ATOM     21  C20 UNL A   1       9.816  47.451   4.672  1.00  0.00    +0.000 C 
ENDBRANCH   20   21
ENDBRANCH   23   22
ENDBRANCH   24   23
ENDBRANCH   26   24
ENDBRANCH   27   26
ENDBRANCH   28   27
ENDBRANCH   29   28
ENDBRANCH   30   29
ENDBRANCH   31   30
ENDBRANCH   32   31
ENDBRANCH   33   32
ENDBRANCH   34   33
ENDBRANCH   36   34
ENDBRANCH   40   39
BRANCH   44   45
ATOM     45  C38 UNL A   1      10.614  56.000  12.673  1.00  0.00    +0.000 C 
ATOM     46  C39 UNL A   1      10.555  57.377  12.376  1.00  0.00    +0.000 C 
ATOM     47  F1  UNL A   1      10.451  57.800  11.107  1.00  0.00    +0.000 F 
ATOM     48  C40 UNL A   1      10.696  58.353  13.366  1.00  0.00    +0.000 C 
ATOM     49  F2  UNL A   1      10.755  59.647  13.023  1.00  0.00    +0.000 F 
ATOM     50  C41 UNL A   1      10.841  57.991  14.693  1.00  0.00    +0.000 C 
ATOM     51  F3  UNL A   1      11.033  58.922  15.636  1.00  0.00    +0.000 F 
ATOM     52  C42 UNL A   1      10.837  56.654  15.031  1.00  0.00    +0.000 C 
ATOM     53  F4  UNL A   1      10.997  56.283  16.309  1.00  0.00    +0.000 F 
ATOM     54  C43 UNL A   1      10.752  55.677  14.039  1.00  0.00    +0.000 C 
ATOM     55  F5  UNL A   1      10.917  54.416  14.457  1.00  0.00    +0.000 F 
ENDBRANCH   44   45
BRANCH   61   62
ATOM     65  C51 UNL A   1      16.990  49.943  10.048  1.00  0.00    +0.000 C 
ATOM     66  F7  UNL A   1      18.314  49.749  10.154  1.00  0.00    +0.000 F 
ATOM     67  C52 UNL A   1      16.250  49.173   9.166  1.00  0.00    +0.000 C 
ATOM     68  F8  UNL A   1      16.852  48.229   8.429  1.00  0.00    +0.000 F 
ATOM     69  C53 UNL A   1      14.879  49.356   9.075  1.00  0.00    +0.000 C 
ATOM     70  F9  UNL A   1      14.153  48.576   8.263  1.00  0.00    +0.000 F 
ATOM     71  C54 UNL A   1      14.250  50.327   9.849  1.00  0.00    +0.000 C 
ATOM     72  F10 UNL A   1      12.917  50.459   9.757  1.00  0.00    +0.000 F 
ATOM     62  C49 UNL A   1      14.974  51.117  10.752  1.00  0.00    +0.000 C 
ATOM     63  C50 UNL A   1      16.357  50.889  10.852  1.00  0.00    +0.000 C 
ATOM     64  F6  UNL A   1      17.093  51.534  11.768  1.00  0.00    +0.000 F 
ENDBRANCH   61   62
BRANCH   76   77
ATOM     77  C58 UNL A   1      11.886  47.964  15.275  1.00  0.00    +0.000 C 
ATOM     78  C59 UNL A   1      10.835  48.218  16.171  1.00  0.00    +0.000 C 
ATOM     79  F11 UNL A   1      10.096  49.331  16.047  1.00  0.00    +0.000 F 
ATOM     80  C60 UNL A   1      10.476  47.297  17.159  1.00  0.00    +0.000 C 
ATOM     81  F12 UNL A   1       9.421  47.541  17.948  1.00  0.00    +0.000 F 
ATOM     82  C61 UNL A   1      11.166  46.102  17.286  1.00  0.00    +0.000 C 
ATOM     83  F13 UNL A   1      10.780  45.189  18.188  1.00  0.00    +0.000 F 
ATOM     84  C62 UNL A   1      12.230  45.838  16.444  1.00  0.00    +0.000 C 
ATOM     85  F14 UNL A   1      12.884  44.673  16.536  1.00  0.00    +0.000 F 
ATOM     86  C63 UNL A   1      12.582  46.754  15.452  1.00  0.00    +0.000 C 
ATOM     87  F15 UNL A   1      13.556  46.387  14.607  1.00  0.00    +0.000 F 
ENDBRANCH   76   77
TORSDOF 20
ENDMDL
MODEL 6
REMARK VINA RESULT:      -9.3     12.289     18.824
ROOT
ATOM    134  H36 UNL A   1      18.885  13.868   7.381  1.00  0.00    +0.000 H 
ATOM    135  H37 UNL A   1      20.240  14.762   9.493  1.00  0.00    +0.000 H 
ATOM    136  H38 UNL A   1      22.744  12.782   7.052  1.00  0.00    +0.000 H 
ATOM    137  H39 UNL A   1      25.522  20.570   6.144  1.00  0.00    +0.000 H 
ATOM    138  H40 UNL A   1      23.075  20.912   5.517  1.00  0.00    +0.000 H 
ATOM    139  H41 UNL A   1      23.660  16.832   6.040  1.00  0.00    +0.000 H 
ATOM    140  H42 UNL A   1      26.256  15.117   5.356  1.00  0.00    +0.000 H 
ATOM    141  H43 UNL A   1      24.427  13.666   6.447  1.00  0.00    +0.000 H 
ATOM    142  H44 UNL A   1      20.412  14.814   2.476  1.00  0.00    +0.000 H 
ATOM    143  H45 UNL A   1      21.122  17.282   2.353  1.00  0.00    +0.000 H 
ATOM     40  C34 UNL A   1      21.707  18.415   4.912  1.00  0.00    +0.000 C 
ATOM     41  C35 UNL A   1      21.339  17.005   4.593  1.00  0.00    +0.000 C 
ATOM     42  N5  UNL A   1      21.130  16.025   5.416  1.00  0.00    +0.000 N 
ATOM     43  C36 UNL A   1      20.865  14.909   4.624  1.00  0.00    +0.000 C 
ATOM     44  C37 UNL A   1      20.944  13.638   5.108  1.00  0.00    +0.000 C 
ATOM     56  C44 UNL A   1      20.867  13.604   6.542  1.00  0.00    +0.000 C 
ATOM     57  C45 UNL A   1      19.910  13.941   7.477  1.00  0.00    +0.000 C 
ATOM     58  C46 UNL A   1      20.641  14.412   8.608  1.00  0.00    +0.000 C 
ATOM     59  C47 UNL A   1      21.996  14.313   8.295  1.00  0.00    +0.000 C 
ATOM     60  N6  UNL A   1      22.027  13.426   7.253  1.00  0.00    +0.000 N 
ATOM     61  C48 UNL A   1      23.156  15.030   8.767  1.00  0.00    +0.000 C 
ATOM     73  C55 UNL A   1      24.315  15.166   8.061  1.00  0.00    +0.000 C 
ATOM     74  N7  UNL A   1      25.153  16.249   8.273  1.00  0.00    +0.000 N 
ATOM     75  C56 UNL A   1      25.771  16.422   7.138  1.00  0.00    +0.000 C 
ATOM     76  C57 UNL A   1      26.175  17.748   6.610  1.00  0.00    +0.000 C 
ATOM     88  C64 UNL A   1      25.045  18.411   6.269  1.00  0.00    +0.000 C 
ATOM     89  C65 UNL A   1      24.819  19.823   6.037  1.00  0.00    +0.000 C 
ATOM     90  C66 UNL A   1      23.535  19.999   5.657  1.00  0.00    +0.000 C 
ATOM     91  C67 UNL A   1      22.899  18.696   5.476  1.00  0.00    +0.000 C 
ATOM     92  N8  UNL A   1      23.829  17.797   5.944  1.00  0.00    +0.000 N 
ATOM     93  C68 UNL A   1      25.721  15.296   6.220  1.00  0.00    +0.000 C 
ATOM     94  C69 UNL A   1      24.782  14.560   6.819  1.00  0.00    +0.000 C 
ATOM     95  C70 UNL A   1      20.729  15.390   3.272  1.00  0.00    +0.000 C 
ATOM     96  C71 UNL A   1      21.067  16.676   3.187  1.00  0.00    +0.000 C 
ENDROOT
BRANCH   40   39
ATOM     97  C72 UNL A   1      20.856  20.264   3.440  1.00  0.00    +0.000 C 
ATOM     98  C73 UNL A   1      19.892  21.240   3.201  1.00  0.00    +0.000 C 
ATOM     36  C30 UNL A   1      18.763  21.372   4.031  1.00  0.00    +0.000 C 
ATOM     37  C31 UNL A   1      18.582  20.436   5.047  1.00  0.00    +0.000 C 
ATOM    132  H34 UNL A   1      17.713  20.447   5.604  1.00  0.00    +0.000 H 
ATOM     38  C32 UNL A   1      19.561  19.490   5.321  1.00  0.00    +0.000 C 
ATOM    133  H35 UNL A   1      19.434  18.831   6.104  1.00  0.00    +0.000 H 
ATOM     39  C33 UNL A   1      20.718  19.425   4.541  1.00  0.00    +0.000 C 
ATOM    144  H46 UNL A   1      21.665  20.163   2.806  1.00  0.00    +0.000 H 
ATOM    145  H47 UNL A   1      20.008  21.881   2.400  1.00  0.00    +0.000 H 
BRANCH   36   34
ATOM     34  C29 UNL A   1      17.888  22.552   3.783  1.00  0.00    +0.000 C 
ATOM     35  O2  UNL A   1      17.429  22.717   2.649  1.00  0.00    +0.000 O 
BRANCH   34   33
ATOM     33  N4  UNL A   1      17.594  23.520   4.705  1.00  0.00    +0.000 N 
ATOM    131  H33 UNL A   1      17.451  24.404   4.295  1.00  0.00    +0.000 H 
BRANCH   33   32
ATOM    129  H31 UNL A   1      18.389  23.302   6.586  1.00  0.00    +0.000 H 
ATOM    130  H32 UNL A   1      17.097  24.514   6.412  1.00  0.00    +0.000 H 
ATOM     32  C28 UNL A   1      17.444  23.537   6.146  1.00  0.00    +0.000 C 
BRANCH   32   31
ATOM    127  H29 UNL A   1      16.798  21.553   6.549  1.00  0.00    +0.000 H 
ATOM     31  C27 UNL A   1      16.406  22.540   6.671  1.00  0.00    +0.000 C 
ATOM    128  H30 UNL A   1      16.228  22.796   7.696  1.00  0.00    +0.000 H 
BRANCH   31   30
ATOM    126  H28 UNL A   1      14.498  21.751   6.294  1.00  0.00    +0.000 H 
ATOM    125  H27 UNL A   1      15.226  22.617   4.908  1.00  0.00    +0.000 H 
ATOM     30  C26 UNL A   1      15.049  22.607   5.964  1.00  0.00    +0.000 C 
BRANCH   30   29
ATOM    123  H25 UNL A   1      14.605  24.279   7.195  1.00  0.00    +0.000 H 
ATOM    124  H26 UNL A   1      14.223  24.472   5.461  1.00  0.00    +0.000 H 
ATOM     29  C25 UNL A   1      14.196  23.827   6.315  1.00  0.00    +0.000 C 
BRANCH   29   28
ATOM    121  H23 UNL A   1      12.240  24.420   6.911  1.00  0.00    +0.000 H 
ATOM    122  H24 UNL A   1      12.309  23.153   5.661  1.00  0.00    +0.000 H 
ATOM     28  C24 UNL A   1      12.716  23.521   6.579  1.00  0.00    +0.000 C 
BRANCH   28   27
ATOM     27  C23 UNL A   1      12.482  22.439   7.631  1.00  0.00    +0.000 C 
ATOM    119  H21 UNL A   1      13.408  22.222   8.120  1.00  0.00    +0.000 H 
ATOM    120  H22 UNL A   1      11.758  22.802   8.329  1.00  0.00    +0.000 H 
BRANCH   27   26
ATOM     26  N3  UNL A   1      11.968  21.221   7.034  1.00  0.00    +0.000 N 
ATOM    118  H20 UNL A   1      12.284  21.033   6.120  1.00  0.00    +0.000 H 
BRANCH   26   24
ATOM     25  O1  UNL A   1       9.911  20.593   7.605  1.00  0.00    +0.000 O 
ATOM     24  C22 UNL A   1      11.108  20.297   7.557  1.00  0.00    +0.000 C 
BRANCH   24   23
ATOM    116  H18 UNL A   1      11.446  19.001   9.193  1.00  0.00    +0.000 H 
ATOM    117  H19 UNL A   1      11.089  18.206   7.639  1.00  0.00    +0.000 H 
ATOM     23  C21 UNL A   1      11.619  18.992   8.137  1.00  0.00    +0.000 C 
BRANCH   23   22
ATOM      2  C2  UNL A   1      16.447  20.206   9.798  1.00  0.00    +0.000 C 
ATOM      3  C3  UNL A   1      15.229  20.467  10.427  1.00  0.00    +0.000 C 
ATOM      4  C4  UNL A   1      14.025  19.989   9.902  1.00  0.00    +0.000 C 
ATOM      5  C5  UNL A   1      14.058  19.252   8.705  1.00  0.00    +0.000 C 
ATOM      6  C6  UNL A   1      15.265  18.939   8.077  1.00  0.00    +0.000 C 
ATOM      7  C7  UNL A   1      16.471  19.427   8.631  1.00  0.00    +0.000 C 
ATOM    102  H4  UNL A   1      15.217  21.023  11.296  1.00  0.00    +0.000 H 
ATOM    104  H6  UNL A   1      17.371  19.209   8.176  1.00  0.00    +0.000 H 
ATOM    103  H5  UNL A   1      13.131  20.174  10.383  1.00  0.00    +0.000 H 
ATOM      8  C8  UNL A   1      14.952  18.145   6.935  1.00  0.00    +0.000 C 
ATOM     20  C19 UNL A   1      13.573  17.991   6.882  1.00  0.00    +0.000 C 
ATOM     22  N2  UNL A   1      13.040  18.750   7.908  1.00  0.00    +0.000 N 
BRANCH    2    1
ATOM      1  C1  UNL A   1      17.713  20.768  10.374  1.00  0.00    +0.000 C 
ATOM     99  H1  UNL A   1      18.339  19.968  10.709  1.00  0.00    +0.000 H 
ATOM    100  H2  UNL A   1      17.478  21.407  11.199  1.00  0.00    +0.000 H 
ATOM    101  H3  UNL A   1      18.228  21.332   9.622  1.00  0.00    +0.000 H 
ENDBRANCH    2    1
BRANCH    8    9
ATOM      9  C9  UNL A   1      15.852  17.561   5.947  1.00  0.00    +0.000 C 
ATOM     10  C10 UNL A   1      16.544  16.405   6.296  1.00  0.00    +0.000 C 
ATOM     11  C11 UNL A   1      17.351  15.829   5.342  1.00  0.00    +0.000 C 
ATOM    105  H7  UNL A   1      16.453  15.993   7.238  1.00  0.00    +0.000 H 
ATOM     13  C12 UNL A   1      16.851  17.443   3.740  1.00  0.00    +0.000 C 
ATOM    106  H8  UNL A   1      17.868  14.972   5.596  1.00  0.00    +0.000 H 
ATOM     12  N1  UNL A   1      17.507  16.318   4.094  1.00  0.00    +0.000 N 
ATOM     14  C13 UNL A   1      16.989  17.966   2.444  1.00  0.00    +0.000 C 
ATOM    112  H14 UNL A   1      14.757  19.807   4.907  1.00  0.00    +0.000 H 
ATOM     18  C17 UNL A   1      15.365  19.309   4.239  1.00  0.00    +0.000 C 
ATOM     19  C18 UNL A   1      16.009  18.120   4.652  1.00  0.00    +0.000 C 
ATOM     17  C16 UNL A   1      15.526  19.826   2.961  1.00  0.00    +0.000 C 
ATOM    111  H13 UNL A   1      15.051  20.700   2.685  1.00  0.00    +0.000 H 
ATOM     16  C15 UNL A   1      16.335  19.152   2.063  1.00  0.00    +0.000 C 
ATOM    110  H12 UNL A   1      16.459  19.522   1.107  1.00  0.00    +0.000 H 
BRANCH   14   15
ATOM    107  H9  UNL A   1      17.466  17.521   0.428  1.00  0.00    +0.000 H 
ATOM    108  H10 UNL A   1      17.792  16.221   1.551  1.00  0.00    +0.000 H 
ATOM    109  H11 UNL A   1      18.848  17.613   1.493  1.00  0.00    +0.000 H 
ATOM     15  C14 UNL A   1      17.835  17.281   1.404  1.00  0.00    +0.000 C 
ENDBRANCH   14   15
ENDBRANCH    8    9
BRANCH   20   21
ATOM    113  H15 UNL A   1      13.392  16.613   5.297  1.00  0.00    +0.000 H 
ATOM    114  H16 UNL A   1      12.213  17.902   5.274  1.00  0.00    +0.000 H 
ATOM    115  H17 UNL A   1      12.059  16.597   6.426  1.00  0.00    +0.000 H 
ATOM     21  C20 UNL A   1      12.751  17.221   5.900  1.00  0.00    +0.000 C 
ENDBRANCH   20   21
ENDBRANCH   23   22
ENDBRANCH   24   23
ENDBRANCH   26   24
ENDBRANCH   27   26
ENDBRANCH   28   27
ENDBRANCH   29   28
ENDBRANCH   30   29
ENDBRANCH   31   30
ENDBRANCH   32   31
ENDBRANCH   33   32
ENDBRANCH   34   33
ENDBRANCH   36   34
ENDBRANCH   40   39
BRANCH   44   45
ATOM     45  C38 UNL A   1      21.402  12.446   4.302  1.00  0.00    +0.000 C 
ATOM     46  C39 UNL A   1      22.743  12.369   3.872  1.00  0.00    +0.000 C 
ATOM     47  F1  UNL A   1      23.670  13.202   4.368  1.00  0.00    +0.000 F 
ATOM     48  C40 UNL A   1      23.144  11.496   2.857  1.00  0.00    +0.000 C 
ATOM     49  F2  UNL A   1      24.401  11.541   2.397  1.00  0.00    +0.000 F 
ATOM     50  C41 UNL A   1      22.234  10.630   2.276  1.00  0.00    +0.000 C 
ATOM     51  F3  UNL A   1      22.603   9.835   1.264  1.00  0.00    +0.000 F 
ATOM     52  C42 UNL A   1      20.928  10.631   2.715  1.00  0.00    +0.000 C 
ATOM     53  F4  UNL A   1      20.027   9.813   2.151  1.00  0.00    +0.000 F 
ATOM     54  C43 UNL A   1      20.513  11.538   3.691  1.00  0.00    +0.000 C 
ATOM     55  F5  UNL A   1      19.197  11.564   3.930  1.00  0.00    +0.000 F 
ENDBRANCH   44   45
BRANCH   61   62
ATOM     65  C51 UNL A   1      23.335  16.487  12.306  1.00  0.00    +0.000 C 
ATOM     66  F7  UNL A   1      23.798  16.156  13.522  1.00  0.00    +0.000 F 
ATOM     67  C52 UNL A   1      22.779  17.739  12.099  1.00  0.00    +0.000 C 
ATOM     68  F8  UNL A   1      22.712  18.621  13.107  1.00  0.00    +0.000 F 
ATOM     69  C53 UNL A   1      22.324  18.091  10.838  1.00  0.00    +0.000 C 
ATOM     70  F9  UNL A   1      21.835  19.319  10.621  1.00  0.00    +0.000 F 
ATOM     71  C54 UNL A   1      22.403  17.181   9.787  1.00  0.00    +0.000 C 
ATOM     72  F10 UNL A   1      21.979  17.562   8.572  1.00  0.00    +0.000 F 
ATOM     62  C49 UNL A   1      22.965  15.910   9.968  1.00  0.00    +0.000 C 
ATOM     63  C50 UNL A   1      23.451  15.590  11.247  1.00  0.00    +0.000 C 
ATOM     64  F6  UNL A   1      24.094  14.434  11.466  1.00  0.00    +0.000 F 
ENDBRANCH   61   62
BRANCH   76   77
ATOM     77  C58 UNL A   1      27.565  18.048   6.199  1.00  0.00    +0.000 C 
ATOM     78  C59 UNL A   1      28.594  18.126   7.152  1.00  0.00    +0.000 C 
ATOM     79  F11 UNL A   1      28.300  18.164   8.460  1.00  0.00    +0.000 F 
ATOM     80  C60 UNL A   1      29.940  18.087   6.781  1.00  0.00    +0.000 C 
ATOM     81  F12 UNL A   1      30.894  18.091   7.722  1.00  0.00    +0.000 F 
ATOM     82  C61 UNL A   1      30.297  17.982   5.445  1.00  0.00    +0.000 C 
ATOM     83  F13 UNL A   1      31.585  17.877   5.093  1.00  0.00    +0.000 F 
ATOM     84  C62 UNL A   1      29.308  17.941   4.480  1.00  0.00    +0.000 C 
ATOM     85  F14 UNL A   1      29.638  17.806   3.188  1.00  0.00    +0.000 F 
ATOM     86  C63 UNL A   1      27.964  17.970   4.851  1.00  0.00    +0.000 C 
ATOM     87  F15 UNL A   1      27.060  17.823   3.871  1.00  0.00    +0.000 F 
ENDBRANCH   76   77
TORSDOF 20
ENDMDL
MODEL 7
REMARK VINA RESULT:      -9.2     33.338     38.454
ROOT
ATOM    134  H36 UNL A   1      12.268  -3.069  25.564  1.00  0.00    +0.000 H 
ATOM    135  H37 UNL A   1       9.756  -3.140  26.449  1.00  0.00    +0.000 H 
ATOM    136  H38 UNL A   1      11.523   0.229  27.743  1.00  0.00    +0.000 H 
ATOM    137  H39 UNL A   1       6.024   3.338  22.331  1.00  0.00    +0.000 H 
ATOM    138  H40 UNL A   1       7.257   1.714  20.803  1.00  0.00    +0.000 H 
ATOM    139  H41 UNL A   1       9.238   1.724  24.454  1.00  0.00    +0.000 H 
ATOM    140  H42 UNL A   1       9.658   4.169  26.454  1.00  0.00    +0.000 H 
ATOM    141  H43 UNL A   1      10.642   1.988  27.410  1.00  0.00    +0.000 H 
ATOM    142  H44 UNL A   1      14.207   1.038  22.984  1.00  0.00    +0.000 H 
ATOM    143  H45 UNL A   1      12.430   1.790  21.285  1.00  0.00    +0.000 H 
ATOM     40  C34 UNL A   1       9.805   0.841  21.907  1.00  0.00    +0.000 C 
ATOM     41  C35 UNL A   1      11.058   0.667  22.698  1.00  0.00    +0.000 C 
ATOM     42  N5  UNL A   1      11.229  -0.017  23.787  1.00  0.00    +0.000 N 
ATOM     43  C36 UNL A   1      12.560   0.177  24.155  1.00  0.00    +0.000 C 
ATOM     44  C37 UNL A   1      13.012  -0.089  25.412  1.00  0.00    +0.000 C 
ATOM     56  C44 UNL A   1      12.135  -0.977  26.122  1.00  0.00    +0.000 C 
ATOM     57  C45 UNL A   1      11.723  -2.284  25.954  1.00  0.00    +0.000 C 
ATOM     58  C46 UNL A   1      10.381  -2.318  26.435  1.00  0.00    +0.000 C 
ATOM     59  C47 UNL A   1      10.069  -1.034  26.883  1.00  0.00    +0.000 C 
ATOM     60  N6  UNL A   1      11.293  -0.446  27.065  1.00  0.00    +0.000 N 
ATOM     61  C48 UNL A   1       8.818  -0.329  27.013  1.00  0.00    +0.000 C 
ATOM     73  C55 UNL A   1       8.697   1.030  27.007  1.00  0.00    +0.000 C 
ATOM     74  N7  UNL A   1       7.520   1.637  26.598  1.00  0.00    +0.000 N 
ATOM     75  C56 UNL A   1       7.885   2.801  26.140  1.00  0.00    +0.000 C 
ATOM     76  C57 UNL A   1       7.221   3.489  25.005  1.00  0.00    +0.000 C 
ATOM     88  C64 UNL A   1       7.506   2.789  23.882  1.00  0.00    +0.000 C 
ATOM     89  C65 UNL A   1       6.863   2.795  22.584  1.00  0.00    +0.000 C 
ATOM     90  C66 UNL A   1       7.545   1.971  21.759  1.00  0.00    +0.000 C 
ATOM     91  C67 UNL A   1       8.755   1.503  22.433  1.00  0.00    +0.000 C 
ATOM     92  N8  UNL A   1       8.620   1.957  23.724  1.00  0.00    +0.000 N 
ATOM     93  C68 UNL A   1       9.212   3.242  26.536  1.00  0.00    +0.000 C 
ATOM     94  C69 UNL A   1       9.686   2.101  27.040  1.00  0.00    +0.000 C 
ATOM     95  C70 UNL A   1      13.193   0.863  23.057  1.00  0.00    +0.000 C 
ATOM     96  C71 UNL A   1      12.293   1.240  22.148  1.00  0.00    +0.000 C 
ENDROOT
BRANCH   40   39
ATOM     97  C72 UNL A   1      10.299   0.990  19.449  1.00  0.00    +0.000 C 
ATOM     98  C73 UNL A   1      10.226   0.404  18.187  1.00  0.00    +0.000 C 
ATOM     36  C30 UNL A   1       9.719  -0.899  18.014  1.00  0.00    +0.000 C 
ATOM     37  C31 UNL A   1       9.380  -1.627  19.152  1.00  0.00    +0.000 C 
ATOM    132  H34 UNL A   1       9.104  -2.619  19.061  1.00  0.00    +0.000 H 
ATOM     38  C32 UNL A   1       9.406  -1.034  20.407  1.00  0.00    +0.000 C 
ATOM    133  H35 UNL A   1       9.111  -1.573  21.235  1.00  0.00    +0.000 H 
ATOM     39  C33 UNL A   1       9.831   0.288  20.554  1.00  0.00    +0.000 C 
ATOM    144  H46 UNL A   1      10.698   1.936  19.562  1.00  0.00    +0.000 H 
ATOM    145  H47 UNL A   1      10.548   0.935  17.363  1.00  0.00    +0.000 H 
BRANCH   36   34
ATOM     34  C29 UNL A   1       9.532  -1.358  16.609  1.00  0.00    +0.000 C 
ATOM     35  O2  UNL A   1       9.754  -0.560  15.694  1.00  0.00    +0.000 O 
BRANCH   34   33
ATOM     33  N4  UNL A   1       9.068  -2.592  16.242  1.00  0.00    +0.000 N 
ATOM    131  H33 UNL A   1       8.662  -3.084  16.992  1.00  0.00    +0.000 H 
BRANCH   33   32
ATOM    129  H31 UNL A   1       8.442  -2.794  14.295  1.00  0.00    +0.000 H 
ATOM    130  H32 UNL A   1      10.052  -3.450  14.679  1.00  0.00    +0.000 H 
ATOM     32  C28 UNL A   1       9.037  -3.337  14.999  1.00  0.00    +0.000 C 
BRANCH   32   31
ATOM    127  H29 UNL A   1       7.402  -4.659  15.306  1.00  0.00    +0.000 H 
ATOM     31  C27 UNL A   1       8.455  -4.747  15.137  1.00  0.00    +0.000 C 
ATOM    128  H30 UNL A   1       8.690  -5.265  14.230  1.00  0.00    +0.000 H 
BRANCH   31   30
ATOM    126  H28 UNL A   1       8.656  -5.164  17.184  1.00  0.00    +0.000 H 
ATOM    125  H27 UNL A   1      10.122  -5.499  16.215  1.00  0.00    +0.000 H 
ATOM     30  C26 UNL A   1       9.056  -5.571  16.279  1.00  0.00    +0.000 C 
BRANCH   30   29
ATOM    123  H25 UNL A   1       7.613  -7.129  16.314  1.00  0.00    +0.000 H 
ATOM    124  H26 UNL A   1       9.096  -7.469  15.379  1.00  0.00    +0.000 H 
ATOM     29  C25 UNL A   1       8.679  -7.055  16.273  1.00  0.00    +0.000 C 
BRANCH   29   28
ATOM    121  H23 UNL A   1      10.316  -7.699  17.472  1.00  0.00    +0.000 H 
ATOM    122  H24 UNL A   1       8.760  -7.538  18.324  1.00  0.00    +0.000 H 
ATOM     28  C24 UNL A   1       9.260  -7.868  17.438  1.00  0.00    +0.000 C 
BRANCH   28   27
ATOM     27  C23 UNL A   1       9.019  -9.372  17.329  1.00  0.00    +0.000 C 
ATOM    119  H21 UNL A   1       9.387  -9.715  16.385  1.00  0.00    +0.000 H 
ATOM    120  H22 UNL A   1       9.532  -9.852  18.135  1.00  0.00    +0.000 H 
BRANCH   27   26
ATOM     26  N3  UNL A   1       7.608  -9.692  17.430  1.00  0.00    +0.000 N 
ATOM    118  H20 UNL A   1       7.103  -9.639  16.586  1.00  0.00    +0.000 H 
BRANCH   26   24
ATOM     25  O1  UNL A   1       7.163 -11.128  19.070  1.00  0.00    +0.000 O 
ATOM     24  C22 UNL A   1       6.881 -10.057  18.527  1.00  0.00    +0.000 C 
BRANCH   24   23
ATOM    116  H18 UNL A   1       4.956  -9.228  18.250  1.00  0.00    +0.000 H 
ATOM    117  H19 UNL A   1       5.381  -9.648  19.929  1.00  0.00    +0.000 H 
ATOM     23  C21 UNL A   1       5.712  -9.216  19.007  1.00  0.00    +0.000 C 
BRANCH   23   22
ATOM      2  C2  UNL A   1       5.509  -4.327  17.109  1.00  0.00    +0.000 C 
ATOM      3  C3  UNL A   1       4.852  -5.463  16.635  1.00  0.00    +0.000 C 
ATOM      4  C4  UNL A   1       4.930  -6.683  17.313  1.00  0.00    +0.000 C 
ATOM      5  C5  UNL A   1       5.708  -6.754  18.482  1.00  0.00    +0.000 C 
ATOM      6  C6  UNL A   1       6.342  -5.624  19.004  1.00  0.00    +0.000 C 
ATOM      7  C7  UNL A   1       6.241  -4.400  18.304  1.00  0.00    +0.000 C 
ATOM    102  H4  UNL A   1       4.297  -5.401  15.767  1.00  0.00    +0.000 H 
ATOM    104  H6  UNL A   1       6.708  -3.557  18.673  1.00  0.00    +0.000 H 
ATOM    103  H5  UNL A   1       4.428  -7.513  16.962  1.00  0.00    +0.000 H 
ATOM      8  C8  UNL A   1       6.990  -6.024  20.209  1.00  0.00    +0.000 C 
ATOM     20  C19 UNL A   1       6.749  -7.378  20.399  1.00  0.00    +0.000 C 
ATOM     22  N2  UNL A   1       6.052  -7.826  19.292  1.00  0.00    +0.000 N 
BRANCH    2    1
ATOM      1  C1  UNL A   1       5.430  -3.047  16.331  1.00  0.00    +0.000 C 
ATOM     99  H1  UNL A   1       4.706  -3.148  15.550  1.00  0.00    +0.000 H 
ATOM    100  H2  UNL A   1       6.386  -2.828  15.906  1.00  0.00    +0.000 H 
ATOM    101  H3  UNL A   1       5.139  -2.250  16.985  1.00  0.00    +0.000 H 
ENDBRANCH    2    1
BRANCH    8    9
ATOM      9  C9  UNL A   1       7.786  -5.225  21.133  1.00  0.00    +0.000 C 
ATOM     10  C10 UNL A   1       7.168  -4.754  22.288  1.00  0.00    +0.000 C 
ATOM     11  C11 UNL A   1       7.936  -4.045  23.182  1.00  0.00    +0.000 C 
ATOM    105  H7  UNL A   1       6.167  -4.932  22.468  1.00  0.00    +0.000 H 
ATOM     13  C12 UNL A   1       9.863  -4.224  21.886  1.00  0.00    +0.000 C 
ATOM    106  H8  UNL A   1       7.483  -3.691  24.039  1.00  0.00    +0.000 H 
ATOM     12  N1  UNL A   1       9.249  -3.783  23.004  1.00  0.00    +0.000 N 
ATOM     14  C13 UNL A   1      11.230  -3.974  21.683  1.00  0.00    +0.000 C 
ATOM    112  H14 UNL A   1       9.327  -5.888  19.009  1.00  0.00    +0.000 H 
ATOM     18  C17 UNL A   1       9.843  -5.365  19.734  1.00  0.00    +0.000 C 
ATOM     19  C18 UNL A   1       9.158  -4.949  20.898  1.00  0.00    +0.000 C 
ATOM     17  C16 UNL A   1      11.189  -5.094  19.536  1.00  0.00    +0.000 C 
ATOM    111  H13 UNL A   1      11.666  -5.403  18.674  1.00  0.00    +0.000 H 
ATOM     16  C15 UNL A   1      11.883  -4.401  20.513  1.00  0.00    +0.000 C 
ATOM    110  H12 UNL A   1      12.887  -4.197  20.382  1.00  0.00    +0.000 H 
BRANCH   14   15
ATOM    107  H9  UNL A   1      12.331  -2.282  22.326  1.00  0.00    +0.000 H 
ATOM    108  H10 UNL A   1      12.943  -3.808  22.919  1.00  0.00    +0.000 H 
ATOM    109  H11 UNL A   1      11.489  -3.122  23.605  1.00  0.00    +0.000 H 
ATOM     15  C14 UNL A   1      12.058  -3.243  22.707  1.00  0.00    +0.000 C 
ENDBRANCH   14   15
ENDBRANCH    8    9
BRANCH   20   21
ATOM    113  H15 UNL A   1       8.213  -8.515  21.405  1.00  0.00    +0.000 H 
ATOM    114  H16 UNL A   1       6.590  -9.152  21.527  1.00  0.00    +0.000 H 
ATOM    115  H17 UNL A   1       7.048  -7.743  22.454  1.00  0.00    +0.000 H 
ATOM     21  C20 UNL A   1       7.181  -8.259  21.526  1.00  0.00    +0.000 C 
ENDBRANCH   20   21
ENDBRANCH   23   22
ENDBRANCH   24   23
ENDBRANCH   26   24
ENDBRANCH   27   26
ENDBRANCH   28   27
ENDBRANCH   29   28
ENDBRANCH   30   29
ENDBRANCH   31   30
ENDBRANCH   32   31
ENDBRANCH   33   32
ENDBRANCH   34   33
ENDBRANCH   36   34
ENDBRANCH   40   39
BRANCH   44   45
ATOM     45  C38 UNL A   1      14.091   0.700  26.114  1.00  0.00    +0.000 C 
ATOM     46  C39 UNL A   1      15.388   0.158  26.229  1.00  0.00    +0.000 C 
ATOM     47  F1  UNL A   1      15.743  -0.925  25.522  1.00  0.00    +0.000 F 
ATOM     48  C40 UNL A   1      16.320   0.660  27.142  1.00  0.00    +0.000 C 
ATOM     49  F2  UNL A   1      17.496   0.038  27.303  1.00  0.00    +0.000 F 
ATOM     50  C41 UNL A   1      16.012   1.755  27.929  1.00  0.00    +0.000 C 
ATOM     51  F3  UNL A   1      16.881   2.201  28.845  1.00  0.00    +0.000 F 
ATOM     52  C42 UNL A   1      14.777   2.353  27.798  1.00  0.00    +0.000 C 
ATOM     53  F4  UNL A   1      14.453   3.403  28.566  1.00  0.00    +0.000 F 
ATOM     54  C43 UNL A   1      13.826   1.822  26.927  1.00  0.00    +0.000 C 
ATOM     55  F5  UNL A   1      12.611   2.379  26.992  1.00  0.00    +0.000 F 
ENDBRANCH   44   45
BRANCH   61   62
ATOM     65  C51 UNL A   1       5.585  -2.257  27.733  1.00  0.00    +0.000 C 
ATOM     66  F7  UNL A   1       4.870  -2.690  28.783  1.00  0.00    +0.000 F 
ATOM     67  C52 UNL A   1       5.098  -2.433  26.448  1.00  0.00    +0.000 C 
ATOM     68  F8  UNL A   1       3.911  -3.027  26.255  1.00  0.00    +0.000 F 
ATOM     69  C53 UNL A   1       5.823  -1.964  25.366  1.00  0.00    +0.000 C 
ATOM     70  F9  UNL A   1       5.331  -2.084  24.126  1.00  0.00    +0.000 F 
ATOM     71  C54 UNL A   1       7.050  -1.336  25.565  1.00  0.00    +0.000 C 
ATOM     72  F10 UNL A   1       7.715  -0.867  24.497  1.00  0.00    +0.000 F 
ATOM     62  C49 UNL A   1       7.564  -1.140  26.854  1.00  0.00    +0.000 C 
ATOM     63  C50 UNL A   1       6.794  -1.594  27.937  1.00  0.00    +0.000 C 
ATOM     64  F6  UNL A   1       7.173  -1.348  29.199  1.00  0.00    +0.000 F 
ENDBRANCH   61   62
BRANCH   76   77
ATOM     77  C58 UNL A   1       6.707   4.873  25.109  1.00  0.00    +0.000 C 
ATOM     78  C59 UNL A   1       5.562   5.158  25.871  1.00  0.00    +0.000 C 
ATOM     79  F11 UNL A   1       4.786   4.161  26.321  1.00  0.00    +0.000 F 
ATOM     80  C60 UNL A   1       5.240   6.465  26.248  1.00  0.00    +0.000 C 
ATOM     81  F12 UNL A   1       4.181   6.691  27.036  1.00  0.00    +0.000 F 
ATOM     82  C61 UNL A   1       6.047   7.524  25.864  1.00  0.00    +0.000 C 
ATOM     83  F13 UNL A   1       5.777   8.769  26.281  1.00  0.00    +0.000 F 
ATOM     84  C62 UNL A   1       7.161   7.281  25.082  1.00  0.00    +0.000 C 
ATOM     85  F14 UNL A   1       7.967   8.292  24.731  1.00  0.00    +0.000 F 
ATOM     86  C63 UNL A   1       7.487   5.976  24.713  1.00  0.00    +0.000 C 
ATOM     87  F15 UNL A   1       8.635   5.804  24.042  1.00  0.00    +0.000 F 
ENDBRANCH   76   77
TORSDOF 20
ENDMDL
MODEL 8
REMARK VINA RESULT:      -9.1      3.982     11.609
ROOT
ATOM    134  H36 UNL A   1      10.007  33.527  -4.449  1.00  0.00    +0.000 H 
ATOM    135  H37 UNL A   1      11.682  33.531  -2.377  1.00  0.00    +0.000 H 
ATOM    136  H38 UNL A   1       7.898  33.444  -1.025  1.00  0.00    +0.000 H 
ATOM    137  H39 UNL A   1      10.496  25.844   1.140  1.00  0.00    +0.000 H 
ATOM    138  H40 UNL A   1      10.999  25.773  -1.358  1.00  0.00    +0.000 H 
ATOM    139  H41 UNL A   1       9.006  29.338  -0.597  1.00  0.00    +0.000 H 
ATOM    140  H42 UNL A   1       6.695  29.881   1.529  1.00  0.00    +0.000 H 
ATOM    141  H43 UNL A   1       7.356  32.037   0.281  1.00  0.00    +0.000 H 
ATOM    142  H44 UNL A   1       6.220  29.969  -4.975  1.00  0.00    +0.000 H 
ATOM    143  H45 UNL A   1       7.227  27.678  -4.381  1.00  0.00    +0.000 H 
ATOM     40  C34 UNL A   1       9.630  27.869  -2.843  1.00  0.00    +0.000 C 
ATOM     41  C35 UNL A   1       8.740  28.976  -3.301  1.00  0.00    +0.000 C 
ATOM     42  N5  UNL A   1       8.916  30.254  -3.166  1.00  0.00    +0.000 N 
ATOM     43  C36 UNL A   1       7.786  30.857  -3.716  1.00  0.00    +0.000 C 
ATOM     44  C37 UNL A   1       7.447  32.148  -3.447  1.00  0.00    +0.000 C 
ATOM     56  C44 UNL A   1       8.564  32.905  -2.954  1.00  0.00    +0.000 C 
ATOM     57  C45 UNL A   1       9.785  33.292  -3.468  1.00  0.00    +0.000 C 
ATOM     58  C46 UNL A   1      10.676  33.299  -2.355  1.00  0.00    +0.000 C 
ATOM     59  C47 UNL A   1       9.935  32.934  -1.230  1.00  0.00    +0.000 C 
ATOM     60  N6  UNL A   1       8.637  33.157  -1.608  1.00  0.00    +0.000 N 
ATOM     61  C48 UNL A   1      10.307  32.315   0.018  1.00  0.00    +0.000 C 
ATOM     73  C55 UNL A   1       9.453  31.601   0.806  1.00  0.00    +0.000 C 
ATOM     74  N7  UNL A   1       9.929  30.614   1.656  1.00  0.00    +0.000 N 
ATOM     75  C56 UNL A   1       8.940  29.773   1.777  1.00  0.00    +0.000 C 
ATOM     76  C57 UNL A   1       9.117  28.308   1.935  1.00  0.00    +0.000 C 
ATOM     88  C64 UNL A   1       9.582  27.825   0.759  1.00  0.00    +0.000 C 
ATOM     89  C65 UNL A   1      10.240  26.571   0.454  1.00  0.00    +0.000 C 
ATOM     90  C66 UNL A   1      10.463  26.511  -0.876  1.00  0.00    +0.000 C 
ATOM     91  C67 UNL A   1       9.827  27.655  -1.527  1.00  0.00    +0.000 C 
ATOM     92  N8  UNL A   1       9.398  28.443  -0.483  1.00  0.00    +0.000 N 
ATOM     93  C68 UNL A   1       7.637  30.275   1.375  1.00  0.00    +0.000 C 
ATOM     94  C69 UNL A   1       8.011  31.393   0.751  1.00  0.00    +0.000 C 
ATOM     95  C70 UNL A   1       7.044  29.811  -4.374  1.00  0.00    +0.000 C 
ATOM     96  C71 UNL A   1       7.563  28.613  -4.102  1.00  0.00    +0.000 C 
ENDROOT
BRANCH   40   39
ATOM     97  C72 UNL A   1      11.401  27.368  -4.552  1.00  0.00    +0.000 C 
ATOM     98  C73 UNL A   1      11.847  26.560  -5.596  1.00  0.00    +0.000 C 
ATOM     36  C30 UNL A   1      11.136  25.407  -5.982  1.00  0.00    +0.000 C 
ATOM     37  C31 UNL A   1      10.023  25.039  -5.231  1.00  0.00    +0.000 C 
ATOM    132  H34 UNL A   1       9.546  24.144  -5.427  1.00  0.00    +0.000 H 
ATOM     38  C32 UNL A   1       9.546  25.863  -4.220  1.00  0.00    +0.000 C 
ATOM    133  H35 UNL A   1       8.695  25.599  -3.701  1.00  0.00    +0.000 H 
ATOM     39  C33 UNL A   1      10.213  27.049  -3.903  1.00  0.00    +0.000 C 
ATOM    144  H46 UNL A   1      11.947  28.195  -4.263  1.00  0.00    +0.000 H 
ATOM    145  H47 UNL A   1      12.713  26.811  -6.096  1.00  0.00    +0.000 H 
BRANCH   36   34
ATOM     34  C29 UNL A   1      11.611  24.715  -7.213  1.00  0.00    +0.000 C 
ATOM     35  O2  UNL A   1      11.665  23.481  -7.212  1.00  0.00    +0.000 O 
BRANCH   34   33
ATOM     33  N4  UNL A   1      12.058  25.342  -8.344  1.00  0.00    +0.000 N 
ATOM    131  H33 UNL A   1      12.054  26.324  -8.261  1.00  0.00    +0.000 H 
BRANCH   33   32
ATOM    129  H31 UNL A   1      13.332  24.193  -9.475  1.00  0.00    +0.000 H 
ATOM    130  H32 UNL A   1      11.702  24.450 -10.141  1.00  0.00    +0.000 H 
ATOM     32  C28 UNL A   1      12.537  24.889  -9.635  1.00  0.00    +0.000 C 
BRANCH   32   31
ATOM    127  H29 UNL A   1      14.071  26.218 -10.263  1.00  0.00    +0.000 H 
ATOM     31  C27 UNL A   1      13.056  26.017 -10.532  1.00  0.00    +0.000 C 
ATOM    128  H30 UNL A   1      12.952  25.677 -11.542  1.00  0.00    +0.000 H 
BRANCH   31   30
ATOM    126  H28 UNL A   1      11.929  27.391  -9.415  1.00  0.00    +0.000 H 
ATOM    125  H27 UNL A   1      11.466  27.285 -11.140  1.00  0.00    +0.000 H 
ATOM     30  C26 UNL A   1      12.265  27.324 -10.429  1.00  0.00    +0.000 C 
BRANCH   30   29
ATOM    123  H25 UNL A   1      13.946  28.323 -11.258  1.00  0.00    +0.000 H 
ATOM    124  H26 UNL A   1      12.428  29.264 -11.221  1.00  0.00    +0.000 H 
ATOM     29  C25 UNL A   1      13.077  28.594 -10.696  1.00  0.00    +0.000 C 
BRANCH   29   28
ATOM    121  H23 UNL A   1      14.568  29.107  -9.266  1.00  0.00    +0.000 H 
ATOM    122  H24 UNL A   1      13.370  30.378  -9.612  1.00  0.00    +0.000 H 
ATOM     28  C24 UNL A   1      13.536  29.337  -9.435  1.00  0.00    +0.000 C 
BRANCH   28   27
ATOM     27  C23 UNL A   1      12.752  28.973  -8.176  1.00  0.00    +0.000 C 
ATOM    119  H21 UNL A   1      11.831  28.510  -8.461  1.00  0.00    +0.000 H 
ATOM    120  H22 UNL A   1      13.349  28.305  -7.591  1.00  0.00    +0.000 H 
BRANCH   27   26
ATOM     26  N3  UNL A   1      12.463  30.147  -7.374  1.00  0.00    +0.000 N 
ATOM    118  H20 UNL A   1      13.204  30.464  -6.808  1.00  0.00    +0.000 H 
BRANCH   26   24
ATOM     25  O1  UNL A   1      11.040  31.398  -6.207  1.00  0.00    +0.000 O 
ATOM     24  C22 UNL A   1      11.310  30.874  -7.291  1.00  0.00    +0.000 C 
BRANCH   24   23
ATOM    116  H18 UNL A   1      10.831  30.536  -9.322  1.00  0.00    +0.000 H 
ATOM    117  H19 UNL A   1       9.467  30.431  -8.180  1.00  0.00    +0.000 H 
ATOM     23  C21 UNL A   1      10.352  30.962  -8.465  1.00  0.00    +0.000 C 
BRANCH   23   22
ATOM      2  C2  UNL A   1      11.975  35.496 -10.551  1.00  0.00    +0.000 C 
ATOM      3  C3  UNL A   1      12.611  34.255 -10.588  1.00  0.00    +0.000 C 
ATOM      4  C4  UNL A   1      12.000  33.110 -10.067  1.00  0.00    +0.000 C 
ATOM      5  C5  UNL A   1      10.730  33.236  -9.478  1.00  0.00    +0.000 C 
ATOM      6  C6  UNL A   1      10.051  34.456  -9.464  1.00  0.00    +0.000 C 
ATOM      7  C7  UNL A   1      10.686  35.597 -10.005  1.00  0.00    +0.000 C 
ATOM    102  H4  UNL A   1      13.550  34.180 -11.009  1.00  0.00    +0.000 H 
ATOM    104  H6  UNL A   1      10.201  36.507  -9.998  1.00  0.00    +0.000 H 
ATOM    103  H5  UNL A   1      12.472  32.194 -10.114  1.00  0.00    +0.000 H 
ATOM      8  C8  UNL A   1       8.784  34.227  -8.852  1.00  0.00    +0.000 C 
ATOM     20  C19 UNL A   1       8.711  32.885  -8.501  1.00  0.00    +0.000 C 
ATOM     22  N2  UNL A   1       9.938  32.320  -8.799  1.00  0.00    +0.000 N 
BRANCH    2    1
ATOM      1  C1  UNL A   1      12.681  36.706 -11.088  1.00  0.00    +0.000 C 
ATOM     99  H1  UNL A   1      12.402  37.565 -10.514  1.00  0.00    +0.000 H 
ATOM    100  H2  UNL A   1      12.407  36.856 -12.110  1.00  0.00    +0.000 H 
ATOM    101  H3  UNL A   1      13.740  36.561 -11.020  1.00  0.00    +0.000 H 
ENDBRANCH    2    1
BRANCH    8    9
ATOM      9  C9  UNL A   1       7.702  35.170  -8.597  1.00  0.00    +0.000 C 
ATOM     10  C10 UNL A   1       6.848  35.484  -9.651  1.00  0.00    +0.000 C 
ATOM     11  C11 UNL A   1       5.798  36.335  -9.391  1.00  0.00    +0.000 C 
ATOM    105  H7  UNL A   1       6.997  35.092 -10.593  1.00  0.00    +0.000 H 
ATOM     13  C12 UNL A   1       6.372  36.590  -7.149  1.00  0.00    +0.000 C 
ATOM    106  H8  UNL A   1       5.162  36.574 -10.169  1.00  0.00    +0.000 H 
ATOM     12  N1  UNL A   1       5.550  36.876  -8.180  1.00  0.00    +0.000 N 
ATOM     14  C13 UNL A   1       6.129  37.133  -5.877  1.00  0.00    +0.000 C 
ATOM    112  H14 UNL A   1       9.152  34.878  -6.331  1.00  0.00    +0.000 H 
ATOM     18  C17 UNL A   1       8.333  35.493  -6.209  1.00  0.00    +0.000 C 
ATOM     19  C18 UNL A   1       7.489  35.739  -7.315  1.00  0.00    +0.000 C 
ATOM     17  C16 UNL A   1       8.093  36.052  -4.961  1.00  0.00    +0.000 C 
ATOM    111  H13 UNL A   1       8.728  35.862  -4.170  1.00  0.00    +0.000 H 
ATOM     16  C15 UNL A   1       6.988  36.868  -4.795  1.00  0.00    +0.000 C 
ATOM    110  H12 UNL A   1       6.793  37.287  -3.871  1.00  0.00    +0.000 H 
BRANCH   14   15
ATOM    107  H9  UNL A   1       4.529  37.784  -4.650  1.00  0.00    +0.000 H 
ATOM    108  H10 UNL A   1       4.195  37.848  -6.364  1.00  0.00    +0.000 H 
ATOM    109  H11 UNL A   1       5.241  39.041  -5.632  1.00  0.00    +0.000 H 
ATOM     15  C14 UNL A   1       4.937  38.016  -5.611  1.00  0.00    +0.000 C 
ENDBRANCH   14   15
ENDBRANCH    8    9
BRANCH   20   21
ATOM    113  H15 UNL A   1       7.747  31.088  -7.967  1.00  0.00    +0.000 H 
ATOM    114  H16 UNL A   1       6.664  32.408  -8.342  1.00  0.00    +0.000 H 
ATOM    115  H17 UNL A   1       7.531  32.392  -6.825  1.00  0.00    +0.000 H 
ATOM     21  C20 UNL A   1       7.584  32.141  -7.864  1.00  0.00    +0.000 C 
ENDBRANCH   20   21
ENDBRANCH   23   22
ENDBRANCH   24   23
ENDBRANCH   26   24
ENDBRANCH   27   26
ENDBRANCH   28   27
ENDBRANCH   29   28
ENDBRANCH   30   29
ENDBRANCH   31   30
ENDBRANCH   32   31
ENDBRANCH   33   32
ENDBRANCH   34   33
ENDBRANCH   36   34
ENDBRANCH   40   39
BRANCH   44   45
ATOM     45  C38 UNL A   1       6.028  32.652  -3.337  1.00  0.00    +0.000 C 
ATOM     46  C39 UNL A   1       5.219  32.229  -2.263  1.00  0.00    +0.000 C 
ATOM     47  F1  UNL A   1       5.755  31.589  -1.213  1.00  0.00    +0.000 F 
ATOM     48  C40 UNL A   1       3.828  32.371  -2.285  1.00  0.00    +0.000 C 
ATOM     49  F2  UNL A   1       3.090  31.846  -1.298  1.00  0.00    +0.000 F 
ATOM     50  C41 UNL A   1       3.203  32.991  -3.351  1.00  0.00    +0.000 C 
ATOM     51  F3  UNL A   1       1.868  33.076  -3.401  1.00  0.00    +0.000 F 
ATOM     52  C42 UNL A   1       3.967  33.477  -4.391  1.00  0.00    +0.000 C 
ATOM     53  F4  UNL A   1       3.377  34.064  -5.442  1.00  0.00    +0.000 F 
ATOM     54  C43 UNL A   1       5.350  33.289  -4.397  1.00  0.00    +0.000 C 
ATOM     55  F5  UNL A   1       5.975  33.655  -5.522  1.00  0.00    +0.000 F 
ENDBRANCH   44   45
BRANCH   61   62
ATOM     65  C51 UNL A   1      13.993  31.268  -0.053  1.00  0.00    +0.000 C 
ATOM     66  F7  UNL A   1      14.777  30.339  -0.622  1.00  0.00    +0.000 F 
ATOM     67  C52 UNL A   1      14.559  32.262   0.730  1.00  0.00    +0.000 C 
ATOM     68  F8  UNL A   1      15.887  32.301   0.909  1.00  0.00    +0.000 F 
ATOM     69  C53 UNL A   1      13.752  33.235   1.297  1.00  0.00    +0.000 C 
ATOM     70  F9  UNL A   1      14.301  34.228   2.009  1.00  0.00    +0.000 F 
ATOM     71  C54 UNL A   1      12.374  33.203   1.101  1.00  0.00    +0.000 C 
ATOM     72  F10 UNL A   1      11.624  34.177   1.641  1.00  0.00    +0.000 F 
ATOM     62  C49 UNL A   1      11.776  32.213   0.311  1.00  0.00    +0.000 C 
ATOM     63  C50 UNL A   1      12.618  31.257  -0.282  1.00  0.00    +0.000 C 
ATOM     64  F6  UNL A   1      12.127  30.344  -1.132  1.00  0.00    +0.000 F 
ENDBRANCH   61   62
BRANCH   76   77
ATOM     77  C58 UNL A   1       8.504  27.552   3.051  1.00  0.00    +0.000 C 
ATOM     78  C59 UNL A   1       7.367  26.755   2.840  1.00  0.00    +0.000 C 
ATOM     79  F11 UNL A   1       6.683  26.849   1.690  1.00  0.00    +0.000 F 
ATOM     80  C60 UNL A   1       6.961  25.796   3.771  1.00  0.00    +0.000 C 
ATOM     81  F12 UNL A   1       5.914  25.004   3.502  1.00  0.00    +0.000 F 
ATOM     82  C61 UNL A   1       7.674  25.615   4.946  1.00  0.00    +0.000 C 
ATOM     83  F13 UNL A   1       7.325  24.650   5.808  1.00  0.00    +0.000 F 
ATOM     84  C62 UNL A   1       8.776  26.409   5.202  1.00  0.00    +0.000 C 
ATOM     85  F14 UNL A   1       9.493  26.221   6.318  1.00  0.00    +0.000 F 
ATOM     86  C63 UNL A   1       9.187  27.360   4.268  1.00  0.00    +0.000 C 
ATOM     87  F15 UNL A   1      10.322  28.022   4.534  1.00  0.00    +0.000 F 
ENDBRANCH   76   77
TORSDOF 20
ENDMDL
MODEL 9
REMARK VINA RESULT:      -9.1     41.360     44.941
ROOT
ATOM    134  H36 UNL A   1       1.538  14.711  37.269  1.00  0.00    +0.000 H 
ATOM    135  H37 UNL A   1       4.162  14.871  37.702  1.00  0.00    +0.000 H 
ATOM    136  H38 UNL A   1       2.229  17.115  40.418  1.00  0.00    +0.000 H 
ATOM    137  H39 UNL A   1       5.160  11.010  45.248  1.00  0.00    +0.000 H 
ATOM    138  H40 UNL A   1       3.876   9.624  43.539  1.00  0.00    +0.000 H 
ATOM    139  H41 UNL A   1       3.100  13.623  42.724  1.00  0.00    +0.000 H 
ATOM    140  H42 UNL A   1       2.817  16.030  44.793  1.00  0.00    +0.000 H 
ATOM    141  H43 UNL A   1       2.608  16.848  42.359  1.00  0.00    +0.000 H 
ATOM    142  H44 UNL A   1      -1.845  13.438  41.039  1.00  0.00    +0.000 H 
ATOM    143  H45 UNL A   1      -0.834  11.471  42.351  1.00  0.00    +0.000 H 
ATOM     40  C34 UNL A   1       1.991  11.210  41.988  1.00  0.00    +0.000 C 
ATOM     41  C35 UNL A   1       1.088  12.268  41.447  1.00  0.00    +0.000 C 
ATOM     42  N5  UNL A   1       1.384  13.237  40.639  1.00  0.00    +0.000 N 
ATOM     43  C36 UNL A   1       0.210  13.973  40.477  1.00  0.00    +0.000 C 
ATOM     44  C37 UNL A   1       0.211  15.245  39.991  1.00  0.00    +0.000 C 
ATOM     56  C44 UNL A   1       1.415  15.543  39.267  1.00  0.00    +0.000 C 
ATOM     57  C45 UNL A   1       2.008  15.062  38.118  1.00  0.00    +0.000 C 
ATOM     58  C46 UNL A   1       3.412  15.157  38.352  1.00  0.00    +0.000 C 
ATOM     59  C47 UNL A   1       3.583  15.707  39.622  1.00  0.00    +0.000 C 
ATOM     60  N6  UNL A   1       2.377  16.300  39.886  1.00  0.00    +0.000 N 
ATOM     61  C48 UNL A   1       4.653  15.611  40.585  1.00  0.00    +0.000 C 
ATOM     73  C55 UNL A   1       4.496  15.792  41.928  1.00  0.00    +0.000 C 
ATOM     74  N7  UNL A   1       5.357  15.188  42.831  1.00  0.00    +0.000 N 
ATOM     75  C56 UNL A   1       4.650  15.038  43.917  1.00  0.00    +0.000 C 
ATOM     76  C57 UNL A   1       4.801  13.894  44.850  1.00  0.00    +0.000 C 
ATOM     88  C64 UNL A   1       4.341  12.790  44.216  1.00  0.00    +0.000 C 
ATOM     89  C65 UNL A   1       4.557  11.386  44.501  1.00  0.00    +0.000 C 
ATOM     90  C66 UNL A   1       3.838  10.651  43.626  1.00  0.00    +0.000 C 
ATOM     91  C67 UNL A   1       2.998  11.537  42.822  1.00  0.00    +0.000 C 
ATOM     92  N8  UNL A   1       3.416  12.802  43.166  1.00  0.00    +0.000 N 
ATOM     93  C68 UNL A   1       3.441  15.840  43.993  1.00  0.00    +0.000 C 
ATOM     94  C69 UNL A   1       3.371  16.260  42.728  1.00  0.00    +0.000 C 
ATOM     95  C70 UNL A   1      -0.841  13.209  41.100  1.00  0.00    +0.000 C 
ATOM     96  C71 UNL A   1      -0.343  12.167  41.766  1.00  0.00    +0.000 C 
ENDROOT
BRANCH   40   39
ATOM     97  C72 UNL A   1       2.303   9.196  40.521  1.00  0.00    +0.000 C 
ATOM     98  C73 UNL A   1       1.891   7.914  40.164  1.00  0.00    +0.000 C 
ATOM     36  C30 UNL A   1       0.877   7.247  40.877  1.00  0.00    +0.000 C 
ATOM     37  C31 UNL A   1       0.358   7.864  42.012  1.00  0.00    +0.000 C 
ATOM    132  H34 UNL A   1      -0.312   7.354  42.612  1.00  0.00    +0.000 H 
ATOM     38  C32 UNL A   1       0.729   9.159  42.347  1.00  0.00    +0.000 C 
ATOM    133  H35 UNL A   1       0.304   9.620  43.166  1.00  0.00    +0.000 H 
ATOM     39  C33 UNL A   1       1.676   9.843  41.580  1.00  0.00    +0.000 C 
ATOM    144  H46 UNL A   1       3.066   9.661  40.004  1.00  0.00    +0.000 H 
ATOM    145  H47 UNL A   1       2.337   7.444  39.360  1.00  0.00    +0.000 H 
BRANCH   36   34
ATOM     34  C29 UNL A   1       0.402   5.955  40.306  1.00  0.00    +0.000 C 
ATOM     35  O2  UNL A   1      -0.215   5.974  39.237  1.00  0.00    +0.000 O 
BRANCH   34   33
ATOM     33  N4  UNL A   1       0.542   4.733  40.906  1.00  0.00    +0.000 N 
ATOM    131  H33 UNL A   1       0.111   4.008  40.397  1.00  0.00    +0.000 H 
BRANCH   33   32
ATOM    129  H31 UNL A   1       1.367   5.108  42.750  1.00  0.00    +0.000 H 
ATOM    130  H32 UNL A   1       0.519   3.554  42.567  1.00  0.00    +0.000 H 
ATOM     32  C28 UNL A   1       1.182   4.264  42.119  1.00  0.00    +0.000 C 
BRANCH   32   31
ATOM    127  H29 UNL A   1       2.878   3.192  42.820  1.00  0.00    +0.000 H 
ATOM     31  C27 UNL A   1       2.511   3.542  41.878  1.00  0.00    +0.000 C 
ATOM    128  H30 UNL A   1       2.307   2.748  41.189  1.00  0.00    +0.000 H 
BRANCH   31   30
ATOM    126  H28 UNL A   1       4.479   4.270  41.821  1.00  0.00    +0.000 H 
ATOM    125  H27 UNL A   1       3.249   5.422  41.224  1.00  0.00    +0.000 H 
ATOM     30  C26 UNL A   1       3.596   4.410  41.234  1.00  0.00    +0.000 C 
BRANCH   30   29
ATOM    123  H25 UNL A   1       4.884   3.467  39.832  1.00  0.00    +0.000 H 
ATOM    124  H26 UNL A   1       3.147   3.453  39.417  1.00  0.00    +0.000 H 
ATOM     29  C25 UNL A   1       3.969   4.021  39.801  1.00  0.00    +0.000 C 
BRANCH   29   28
ATOM    121  H23 UNL A   1       4.528   4.830  37.913  1.00  0.00    +0.000 H 
ATOM    122  H24 UNL A   1       3.208   5.683  38.751  1.00  0.00    +0.000 H 
ATOM     28  C24 UNL A   1       4.160   5.206  38.845  1.00  0.00    +0.000 C 
BRANCH   28   27
ATOM     27  C23 UNL A   1       5.137   6.265  39.352  1.00  0.00    +0.000 C 
ATOM    119  H21 UNL A   1       4.663   6.833  40.124  1.00  0.00    +0.000 H 
ATOM    120  H22 UNL A   1       6.007   5.767  39.725  1.00  0.00    +0.000 H 
BRANCH   27   26
ATOM     26  N3  UNL A   1       5.545   7.162  38.288  1.00  0.00    +0.000 N 
ATOM    118  H20 UNL A   1       6.094   6.753  37.580  1.00  0.00    +0.000 H 
BRANCH   26   24
ATOM     25  O1  UNL A   1       5.469   9.234  39.095  1.00  0.00    +0.000 O 
ATOM     24  C22 UNL A   1       5.278   8.492  38.128  1.00  0.00    +0.000 C 
BRANCH   24   23
ATOM    116  H18 UNL A   1       5.100   9.990  36.646  1.00  0.00    +0.000 H 
ATOM    117  H19 UNL A   1       4.928   8.312  36.072  1.00  0.00    +0.000 H 
ATOM     23  C21 UNL A   1       4.685   9.022  36.836  1.00  0.00    +0.000 C 
BRANCH   23   22
ATOM      2  C2  UNL A   1       0.214   6.531  35.672  1.00  0.00    +0.000 C 
ATOM      3  C3  UNL A   1       1.503   6.002  35.737  1.00  0.00    +0.000 C 
ATOM      4  C4  UNL A   1       2.586   6.777  36.161  1.00  0.00    +0.000 C 
ATOM      5  C5  UNL A   1       2.357   8.122  36.502  1.00  0.00    +0.000 C 
ATOM      6  C6  UNL A   1       1.072   8.668  36.488  1.00  0.00    +0.000 C 
ATOM      7  C7  UNL A   1      -0.008   7.861  36.064  1.00  0.00    +0.000 C 
ATOM    102  H4  UNL A   1       1.660   5.018  35.468  1.00  0.00    +0.000 H 
ATOM    104  H6  UNL A   1      -0.963   8.250  36.042  1.00  0.00    +0.000 H 
ATOM    103  H5  UNL A   1       3.533   6.371  36.220  1.00  0.00    +0.000 H 
ATOM      8  C8  UNL A   1       1.182  10.016  36.937  1.00  0.00    +0.000 C 
ATOM     20  C19 UNL A   1       2.519  10.272  37.210  1.00  0.00    +0.000 C 
ATOM     22  N2  UNL A   1       3.231   9.142  36.849  1.00  0.00    +0.000 N 
BRANCH    2    1
ATOM      1  C1  UNL A   1      -0.915   5.676  35.177  1.00  0.00    +0.000 C 
ATOM     99  H1  UNL A   1      -0.860   5.596  34.111  1.00  0.00    +0.000 H 
ATOM    100  H2  UNL A   1      -1.847   6.119  35.454  1.00  0.00    +0.000 H 
ATOM    101  H3  UNL A   1      -0.840   4.700  35.611  1.00  0.00    +0.000 H 
ENDBRANCH    2    1
BRANCH    8    9
ATOM      9  C9  UNL A   1       0.136  11.017  37.105  1.00  0.00    +0.000 C 
ATOM     10  C10 UNL A   1       0.187  12.156  36.306  1.00  0.00    +0.000 C 
ATOM     11  C11 UNL A   1      -0.831  13.073  36.432  1.00  0.00    +0.000 C 
ATOM    105  H7  UNL A   1       0.962  12.308  35.642  1.00  0.00    +0.000 H 
ATOM     13  C12 UNL A   1      -1.935  11.836  38.067  1.00  0.00    +0.000 C 
ATOM    106  H8  UNL A   1      -0.797  13.921  35.844  1.00  0.00    +0.000 H 
ATOM     12  N1  UNL A   1      -1.872  12.930  37.279  1.00  0.00    +0.000 N 
ATOM     14  C13 UNL A   1      -3.013  11.659  38.949  1.00  0.00    +0.000 C 
ATOM    112  H14 UNL A   1      -0.293   9.008  38.866  1.00  0.00    +0.000 H 
ATOM     18  C17 UNL A   1      -1.030   9.729  38.891  1.00  0.00    +0.000 C 
ATOM     19  C18 UNL A   1      -0.930  10.842  38.026  1.00  0.00    +0.000 C 
ATOM     17  C16 UNL A   1      -2.091   9.577  39.772  1.00  0.00    +0.000 C 
ATOM    111  H13 UNL A   1      -2.139   8.758  40.399  1.00  0.00    +0.000 H 
ATOM     16  C15 UNL A   1      -3.084  10.540  39.798  1.00  0.00    +0.000 C 
ATOM    110  H12 UNL A   1      -3.883  10.437  40.445  1.00  0.00    +0.000 H 
BRANCH   14   15
ATOM    107  H9  UNL A   1      -4.990  12.271  38.492  1.00  0.00    +0.000 H 
ATOM    108  H10 UNL A   1      -3.832  13.578  38.581  1.00  0.00    +0.000 H 
ATOM    109  H11 UNL A   1      -4.407  12.817  40.046  1.00  0.00    +0.000 H 
ATOM     15  C14 UNL A   1      -4.143  12.653  39.023  1.00  0.00    +0.000 C 
ENDBRANCH   14   15
ENDBRANCH    8    9
BRANCH   20   21
ATOM    113  H15 UNL A   1       3.999  11.268  38.334  1.00  0.00    +0.000 H 
ATOM    114  H16 UNL A   1       2.438  12.054  38.333  1.00  0.00    +0.000 H 
ATOM    115  H17 UNL A   1       3.460  12.136  36.917  1.00  0.00    +0.000 H 
ATOM     21  C20 UNL A   1       3.148  11.521  37.736  1.00  0.00    +0.000 C 
ENDBRANCH   20   21
ENDBRANCH   23   22
ENDBRANCH   24   23
ENDBRANCH   26   24
ENDBRANCH   27   26
ENDBRANCH   28   27
ENDBRANCH   29   28
ENDBRANCH   30   29
ENDBRANCH   31   30
ENDBRANCH   32   31
ENDBRANCH   33   32
ENDBRANCH   34   33
ENDBRANCH   36   34
ENDBRANCH   40   39
BRANCH   44   45
ATOM     45  C38 UNL A   1      -0.746  16.327  40.432  1.00  0.00    +0.000 C 
ATOM     46  C39 UNL A   1      -1.819  16.693  39.593  1.00  0.00    +0.000 C 
ATOM     47  F1  UNL A   1      -2.147  15.939  38.533  1.00  0.00    +0.000 F 
ATOM     48  C40 UNL A   1      -2.520  17.889  39.769  1.00  0.00    +0.000 C 
ATOM     49  F2  UNL A   1      -3.450  18.253  38.876  1.00  0.00    +0.000 F 
ATOM     50  C41 UNL A   1      -2.214  18.733  40.821  1.00  0.00    +0.000 C 
ATOM     51  F3  UNL A   1      -2.844  19.906  40.958  1.00  0.00    +0.000 F 
ATOM     52  C42 UNL A   1      -1.215  18.378  41.701  1.00  0.00    +0.000 C 
ATOM     53  F4  UNL A   1      -0.890  19.192  42.716  1.00  0.00    +0.000 F 
ATOM     54  C43 UNL A   1      -0.477  17.211  41.497  1.00  0.00    +0.000 C 
ATOM     55  F5  UNL A   1       0.569  17.041  42.313  1.00  0.00    +0.000 F 
ENDBRANCH   44   45
BRANCH   61   62
ATOM     65  C51 UNL A   1       8.312  15.091  39.573  1.00  0.00    +0.000 C 
ATOM     66  F7  UNL A   1       9.428  15.811  39.383  1.00  0.00    +0.000 F 
ATOM     67  C52 UNL A   1       8.356  13.710  39.465  1.00  0.00    +0.000 C 
ATOM     68  F8  UNL A   1       9.514  13.094  39.182  1.00  0.00    +0.000 F 
ATOM     69  C53 UNL A   1       7.209  12.965  39.685  1.00  0.00    +0.000 C 
ATOM     70  F9  UNL A   1       7.260  11.627  39.635  1.00  0.00    +0.000 F 
ATOM     71  C54 UNL A   1       6.009  13.601  39.991  1.00  0.00    +0.000 C 
ATOM     72  F10 UNL A   1       4.923  12.848  40.226  1.00  0.00    +0.000 F 
ATOM     62  C49 UNL A   1       5.937  14.995  40.111  1.00  0.00    +0.000 C 
ATOM     63  C50 UNL A   1       7.121  15.727  39.917  1.00  0.00    +0.000 C 
ATOM     64  F6  UNL A   1       7.148  17.052  40.118  1.00  0.00    +0.000 F 
ENDBRANCH   61   62
BRANCH   76   77
ATOM     77  C58 UNL A   1       5.040  14.079  46.299  1.00  0.00    +0.000 C 
ATOM     78  C59 UNL A   1       6.181  14.757  46.757  1.00  0.00    +0.000 C 
ATOM     79  F11 UNL A   1       7.183  15.040  45.911  1.00  0.00    +0.000 F 
ATOM     80  C60 UNL A   1       6.277  15.224  48.071  1.00  0.00    +0.000 C 
ATOM     81  F12 UNL A   1       7.350  15.931  48.452  1.00  0.00    +0.000 F 
ATOM     82  C61 UNL A   1       5.241  15.015  48.967  1.00  0.00    +0.000 C 
ATOM     83  F13 UNL A   1       5.303  15.521  50.206  1.00  0.00    +0.000 F 
ATOM     84  C62 UNL A   1       4.119  14.318  48.557  1.00  0.00    +0.000 C 
ATOM     85  F14 UNL A   1       3.096  14.138  49.404  1.00  0.00    +0.000 F 
ATOM     86  C63 UNL A   1       4.019  13.860  47.243  1.00  0.00    +0.000 C 
ATOM     87  F15 UNL A   1       2.862  13.283  46.888  1.00  0.00    +0.000 F 
ENDBRANCH   76   77
TORSDOF 20
ENDMDL
MODEL 10
REMARK VINA RESULT:      -9.0      4.196      8.604
ROOT
ATOM    134  H36 UNL A   1       6.741  29.590  -4.439  1.00  0.00    +0.000 H 
ATOM    135  H37 UNL A   1       9.143  28.458  -4.658  1.00  0.00    +0.000 H 
ATOM    136  H38 UNL A   1       9.559  32.455  -4.614  1.00  0.00    +0.000 H 
ATOM    137  H39 UNL A   1      12.952  30.459   2.714  1.00  0.00    +0.000 H 
ATOM    138  H40 UNL A   1      10.663  29.375   2.993  1.00  0.00    +0.000 H 
ATOM    139  H41 UNL A   1      10.604  31.488  -0.584  1.00  0.00    +0.000 H 
ATOM    140  H42 UNL A   1      12.063  34.238  -1.265  1.00  0.00    +0.000 H 
ATOM    141  H43 UNL A   1      10.820  33.295  -3.316  1.00  0.00    +0.000 H 
ATOM    142  H44 UNL A   1       5.651  33.147  -0.773  1.00  0.00    +0.000 H 
ATOM    143  H45 UNL A   1       6.670  32.315   1.436  1.00  0.00    +0.000 H 
ATOM     40  C34 UNL A   1       8.712  30.348   1.063  1.00  0.00    +0.000 C 
ATOM     41  C35 UNL A   1       7.959  31.100   0.018  1.00  0.00    +0.000 C 
ATOM     42  N5  UNL A   1       8.017  30.960  -1.270  1.00  0.00    +0.000 N 
ATOM     43  C36 UNL A   1       7.162  31.926  -1.799  1.00  0.00    +0.000 C 
ATOM     44  C37 UNL A   1       7.226  32.317  -3.103  1.00  0.00    +0.000 C 
ATOM     56  C44 UNL A   1       7.900  31.348  -3.922  1.00  0.00    +0.000 C 
ATOM     57  C45 UNL A   1       7.658  30.040  -4.286  1.00  0.00    +0.000 C 
ATOM     58  C46 UNL A   1       8.946  29.441  -4.409  1.00  0.00    +0.000 C 
ATOM     59  C47 UNL A   1       9.891  30.429  -4.129  1.00  0.00    +0.000 C 
ATOM     60  N6  UNL A   1       9.196  31.598  -4.292  1.00  0.00    +0.000 N 
ATOM     61  C48 UNL A   1      11.242  30.366  -3.629  1.00  0.00    +0.000 C 
ATOM     73  C55 UNL A   1      11.865  31.384  -2.969  1.00  0.00    +0.000 C 
ATOM     74  N7  UNL A   1      12.888  31.127  -2.070  1.00  0.00    +0.000 N 
ATOM     75  C56 UNL A   1      12.846  32.117  -1.223  1.00  0.00    +0.000 C 
ATOM     76  C57 UNL A   1      13.172  31.986   0.218  1.00  0.00    +0.000 C 
ATOM     88  C64 UNL A   1      12.189  31.254   0.793  1.00  0.00    +0.000 C 
ATOM     89  C65 UNL A   1      12.163  30.544   2.055  1.00  0.00    +0.000 C 
ATOM     90  C66 UNL A   1      10.934  30.010   2.226  1.00  0.00    +0.000 C 
ATOM     91  C67 UNL A   1      10.051  30.471   1.157  1.00  0.00    +0.000 C 
ATOM     92  N8  UNL A   1      10.888  31.135   0.290  1.00  0.00    +0.000 N 
ATOM     93  C68 UNL A   1      12.102  33.286  -1.662  1.00  0.00    +0.000 C 
ATOM     94  C69 UNL A   1      11.487  32.772  -2.729  1.00  0.00    +0.000 C 
ATOM     95  C70 UNL A   1       6.443  32.491  -0.685  1.00  0.00    +0.000 C 
ATOM     96  C71 UNL A   1       6.937  32.053   0.473  1.00  0.00    +0.000 C 
ENDROOT
BRANCH   40   39
ATOM     97  C72 UNL A   1       7.837  28.142   1.886  1.00  0.00    +0.000 C 
ATOM     98  C73 UNL A   1       6.984  27.451   2.744  1.00  0.00    +0.000 C 
ATOM     36  C30 UNL A   1       6.211  28.126   3.707  1.00  0.00    +0.000 C 
ATOM     37  C31 UNL A   1       6.390  29.500   3.848  1.00  0.00    +0.000 C 
ATOM    132  H34 UNL A   1       5.914  30.003   4.614  1.00  0.00    +0.000 H 
ATOM     38  C32 UNL A   1       7.202  30.202   2.967  1.00  0.00    +0.000 C 
ATOM    133  H35 UNL A   1       7.293  31.226   3.056  1.00  0.00    +0.000 H 
ATOM     39  C33 UNL A   1       7.900  29.530   1.961  1.00  0.00    +0.000 C 
ATOM    144  H46 UNL A   1       8.418  27.630   1.204  1.00  0.00    +0.000 H 
ATOM    145  H47 UNL A   1       6.916  26.424   2.671  1.00  0.00    +0.000 H 
BRANCH   36   34
ATOM     34  C29 UNL A   1       5.213  27.308   4.453  1.00  0.00    +0.000 C 
ATOM     35  O2  UNL A   1       5.620  26.374   5.150  1.00  0.00    +0.000 O 
BRANCH   34   33
ATOM     33  N4  UNL A   1       3.856  27.468   4.382  1.00  0.00    +0.000 N 
ATOM    131  H33 UNL A   1       3.430  27.496   5.269  1.00  0.00    +0.000 H 
BRANCH   33   32
ATOM    129  H31 UNL A   1       2.622  28.634   3.225  1.00  0.00    +0.000 H 
ATOM    130  H32 UNL A   1       3.389  27.249   2.411  1.00  0.00    +0.000 H 
ATOM     32  C28 UNL A   1       2.905  27.605   3.296  1.00  0.00    +0.000 C 
BRANCH   32   31
ATOM    127  H29 UNL A   1       1.736  25.878   2.891  1.00  0.00    +0.000 H 
ATOM     31  C27 UNL A   1       1.636  26.767   3.477  1.00  0.00    +0.000 C 
ATOM    128  H30 UNL A   1       1.546  26.569   4.525  1.00  0.00    +0.000 H 
BRANCH   31   30
ATOM    126  H28 UNL A   1      -0.405  27.173   3.757  1.00  0.00    +0.000 H 
ATOM    125  H27 UNL A   1       0.122  27.187   2.048  1.00  0.00    +0.000 H 
ATOM     30  C26 UNL A   1       0.344  27.474   3.055  1.00  0.00    +0.000 C 
BRANCH   30   29
ATOM    123  H25 UNL A   1       1.317  29.288   3.576  1.00  0.00    +0.000 H 
ATOM    124  H26 UNL A   1       0.307  29.348   2.104  1.00  0.00    +0.000 H 
ATOM     29  C25 UNL A   1       0.395  29.002   3.113  1.00  0.00    +0.000 C 
BRANCH   29   28
ATOM    121  H23 UNL A   1      -0.571  29.512   4.940  1.00  0.00    +0.000 H 
ATOM    122  H24 UNL A   1      -0.772  30.685   3.614  1.00  0.00    +0.000 H 
ATOM     28  C24 UNL A   1      -0.753  29.653   3.895  1.00  0.00    +0.000 C 
BRANCH   28   27
ATOM     27  C23 UNL A   1      -2.131  29.082   3.568  1.00  0.00    +0.000 C 
ATOM    119  H21 UNL A   1      -2.101  28.634   2.597  1.00  0.00    +0.000 H 
ATOM    120  H22 UNL A   1      -2.379  28.357   4.315  1.00  0.00    +0.000 H 
BRANCH   27   26
ATOM     26  N3  UNL A   1      -3.150  30.115   3.580  1.00  0.00    +0.000 N 
ATOM    118  H20 UNL A   1      -4.015  29.849   3.969  1.00  0.00    +0.000 H 
BRANCH   26   24
ATOM     25  O1  UNL A   1      -3.066  32.303   3.973  1.00  0.00    +0.000 O 
ATOM     24  C22 UNL A   1      -3.081  31.402   3.130  1.00  0.00    +0.000 C 
BRANCH   24   23
ATOM    116  H18 UNL A   1      -3.587  30.902   1.139  1.00  0.00    +0.000 H 
ATOM    117  H19 UNL A   1      -3.643  32.638   1.537  1.00  0.00    +0.000 H 
ATOM     23  C21 UNL A   1      -3.111  31.716   1.646  1.00  0.00    +0.000 C 
BRANCH   23   22
ATOM      2  C2  UNL A   1       0.669  35.262   0.820  1.00  0.00    +0.000 C 
ATOM      3  C3  UNL A   1      -0.433  35.361   1.669  1.00  0.00    +0.000 C 
ATOM      4  C4  UNL A   1      -1.304  34.283   1.856  1.00  0.00    +0.000 C 
ATOM      5  C5  UNL A   1      -1.062  33.093   1.148  1.00  0.00    +0.000 C 
ATOM      6  C6  UNL A   1       0.056  32.950   0.324  1.00  0.00    +0.000 C 
ATOM      7  C7  UNL A   1       0.927  34.052   0.158  1.00  0.00    +0.000 C 
ATOM    102  H4  UNL A   1      -0.609  36.246   2.170  1.00  0.00    +0.000 H 
ATOM    104  H6  UNL A   1       1.754  33.965  -0.452  1.00  0.00    +0.000 H 
ATOM    103  H5  UNL A   1      -2.108  34.361   2.499  1.00  0.00    +0.000 H 
ATOM      8  C8  UNL A   1       0.034  31.621  -0.191  1.00  0.00    +0.000 C 
ATOM     20  C19 UNL A   1      -1.088  30.981   0.317  1.00  0.00    +0.000 C 
ATOM     22  N2  UNL A   1      -1.794  31.918   1.050  1.00  0.00    +0.000 N 
BRANCH    2    1
ATOM      1  C1  UNL A   1       1.558  36.454   0.618  1.00  0.00    +0.000 C 
ATOM     99  H1  UNL A   1       2.093  36.657   1.523  1.00  0.00    +0.000 H 
ATOM    100  H2  UNL A   1       0.963  37.304   0.358  1.00  0.00    +0.000 H 
ATOM    101  H3  UNL A   1       2.254  36.251  -0.170  1.00  0.00    +0.000 H 
ENDBRANCH    2    1
BRANCH    8    9
ATOM      9  C9  UNL A   1       0.974  30.970  -1.095  1.00  0.00    +0.000 C 
ATOM     10  C10 UNL A   1       0.653  30.922  -2.448  1.00  0.00    +0.000 C 
ATOM     11  C11 UNL A   1       1.568  30.353  -3.304  1.00  0.00    +0.000 C 
ATOM    105  H7  UNL A   1      -0.240  31.302  -2.798  1.00  0.00    +0.000 H 
ATOM     13  C12 UNL A   1       3.078  29.872  -1.597  1.00  0.00    +0.000 C 
ATOM    106  H8  UNL A   1       1.335  30.313  -4.309  1.00  0.00    +0.000 H 
ATOM     12  N1  UNL A   1       2.753  29.843  -2.907  1.00  0.00    +0.000 N 
ATOM     14  C13 UNL A   1       4.310  29.358  -1.161  1.00  0.00    +0.000 C 
ATOM    112  H14 UNL A   1       1.934  30.799   1.430  1.00  0.00    +0.000 H 
ATOM     18  C17 UNL A   1       2.578  30.404   0.727  1.00  0.00    +0.000 C 
ATOM     19  C18 UNL A   1       2.200  30.422  -0.635  1.00  0.00    +0.000 C 
ATOM     17  C16 UNL A   1       3.790  29.874   1.147  1.00  0.00    +0.000 C 
ATOM    111  H13 UNL A   1       4.040  29.867   2.148  1.00  0.00    +0.000 H 
ATOM     16  C15 UNL A   1       4.657  29.355   0.202  1.00  0.00    +0.000 C 
ATOM    110  H12 UNL A   1       5.564  28.962   0.499  1.00  0.00    +0.000 H 
BRANCH   14   15
ATOM    107  H9  UNL A   1       4.895  27.940  -2.623  1.00  0.00    +0.000 H 
ATOM    108  H10 UNL A   1       6.196  28.498  -1.598  1.00  0.00    +0.000 H 
ATOM    109  H11 UNL A   1       5.569  29.536  -2.856  1.00  0.00    +0.000 H 
ATOM     15  C14 UNL A   1       5.315  28.792  -2.130  1.00  0.00    +0.000 C 
ENDBRANCH   14   15
ENDBRANCH    8    9
BRANCH   20   21
ATOM    113  H15 UNL A   1      -2.413  29.568  -0.514  1.00  0.00    +0.000 H 
ATOM    114  H16 UNL A   1      -1.776  29.128   1.052  1.00  0.00    +0.000 H 
ATOM    115  H17 UNL A   1      -0.763  29.014  -0.367  1.00  0.00    +0.000 H 
ATOM     21  C20 UNL A   1      -1.542  29.573   0.107  1.00  0.00    +0.000 C 
ENDBRANCH   20   21
ENDBRANCH   23   22
ENDBRANCH   24   23
ENDBRANCH   26   24
ENDBRANCH   27   26
ENDBRANCH   28   27
ENDBRANCH   29   28
ENDBRANCH   30   29
ENDBRANCH   31   30
ENDBRANCH   32   31
ENDBRANCH   33   32
ENDBRANCH   34   33
ENDBRANCH   36   34
ENDBRANCH   40   39
BRANCH   44   45
ATOM     45  C38 UNL A   1       6.949  33.720  -3.586  1.00  0.00    +0.000 C 
ATOM     46  C39 UNL A   1       5.906  33.947  -4.507  1.00  0.00    +0.000 C 
ATOM     47  F1  UNL A   1       5.006  32.989  -4.773  1.00  0.00    +0.000 F 
ATOM     48  C40 UNL A   1       5.817  35.131  -5.246  1.00  0.00    +0.000 C 
ATOM     49  F2  UNL A   1       4.882  35.254  -6.197  1.00  0.00    +0.000 F 
ATOM     50  C41 UNL A   1       6.731  36.151  -5.048  1.00  0.00    +0.000 C 
ATOM     51  F3  UNL A   1       6.683  37.261  -5.795  1.00  0.00    +0.000 F 
ATOM     52  C42 UNL A   1       7.726  35.992  -4.109  1.00  0.00    +0.000 C 
ATOM     53  F4  UNL A   1       8.633  36.962  -3.917  1.00  0.00    +0.000 F 
ATOM     54  C43 UNL A   1       7.849  34.791  -3.409  1.00  0.00    +0.000 C 
ATOM     55  F5  UNL A   1       8.939  34.682  -2.640  1.00  0.00    +0.000 F 
ENDBRANCH   44   45
BRANCH   61   62
ATOM     65  C51 UNL A   1      12.343  26.871  -2.508  1.00  0.00    +0.000 C 
ATOM     66  F7  UNL A   1      12.275  26.080  -1.426  1.00  0.00    +0.000 F 
ATOM     67  C52 UNL A   1      12.900  26.387  -3.681  1.00  0.00    +0.000 C 
ATOM     68  F8  UNL A   1      13.362  25.129  -3.737  1.00  0.00    +0.000 F 
ATOM     69  C53 UNL A   1      12.947  27.195  -4.806  1.00  0.00    +0.000 C 
ATOM     70  F9  UNL A   1      13.436  26.713  -5.956  1.00  0.00    +0.000 F 
ATOM     71  C54 UNL A   1      12.457  28.497  -4.753  1.00  0.00    +0.000 C 
ATOM     72  F10 UNL A   1      12.491  29.243  -5.868  1.00  0.00    +0.000 F 
ATOM     62  C49 UNL A   1      11.884  29.010  -3.582  1.00  0.00    +0.000 C 
ATOM     63  C50 UNL A   1      11.816  28.160  -2.465  1.00  0.00    +0.000 C 
ATOM     64  F6  UNL A   1      11.188  28.549  -1.345  1.00  0.00    +0.000 F 
ENDBRANCH   61   62
BRANCH   76   77
ATOM     77  C58 UNL A   1      14.174  32.848   0.886  1.00  0.00    +0.000 C 
ATOM     78  C59 UNL A   1      13.771  33.869   1.762  1.00  0.00    +0.000 C 
ATOM     79  F11 UNL A   1      12.482  34.231   1.829  1.00  0.00    +0.000 F 
ATOM     80  C60 UNL A   1      14.673  34.478   2.640  1.00  0.00    +0.000 C 
ATOM     81  F12 UNL A   1      14.238  35.397   3.512  1.00  0.00    +0.000 F 
ATOM     82  C61 UNL A   1      16.004  34.092   2.657  1.00  0.00    +0.000 C 
ATOM     83  F13 UNL A   1      16.854  34.628   3.543  1.00  0.00    +0.000 F 
ATOM     84  C62 UNL A   1      16.440  33.117   1.780  1.00  0.00    +0.000 C 
ATOM     85  F14 UNL A   1      17.717  32.711   1.808  1.00  0.00    +0.000 F 
ATOM     86  C63 UNL A   1      15.539  32.501   0.910  1.00  0.00    +0.000 C 
ATOM     87  F15 UNL A   1      16.009  31.494   0.162  1.00  0.00    +0.000 F 
ENDBRANCH   76   77
TORSDOF 20
ENDMDL
