MODEL 1
REMARK VINA RESULT:      -8.6      0.000      0.000
ROOT
ATOM    145  H40 UNL A   1      17.457  15.165   9.333  1.00  0.00    +0.000 H 
ATOM    146  H41 UNL A   1      19.670  15.018   7.961  1.00  0.00    +0.000 H 
ATOM    147  H42 UNL A   1      17.735  18.533   6.937  1.00  0.00    +0.000 H 
ATOM    148  H43 UNL A   1      17.461  23.826   3.395  1.00  0.00    +0.000 H 
ATOM    149  H44 UNL A   1      15.396  24.053   4.855  1.00  0.00    +0.000 H 
ATOM    150  H45 UNL A   1      17.299  20.506   5.893  1.00  0.00    +0.000 H 
ATOM    151  H46 UNL A   1      21.471  20.323   3.105  1.00  0.00    +0.000 H 
ATOM    152  H47 UNL A   1      21.937  18.053   4.194  1.00  0.00    +0.000 H 
ATOM    153  H48 UNL A   1      13.578  18.863   9.727  1.00  0.00    +0.000 H 
ATOM    154  H49 UNL A   1      12.960  21.006   8.467  1.00  0.00    +0.000 H 
ATOM     47  C34 UNL A   1      14.935  21.839   6.585  1.00  0.00    +0.000 C 
ATOM     48  C35 UNL A   1      14.939  20.604   7.437  1.00  0.00    +0.000 C 
ATOM     49  N6  UNL A   1      15.831  19.647   7.495  1.00  0.00    +0.000 N 
ATOM     50  C36 UNL A   1      15.373  18.757   8.456  1.00  0.00    +0.000 C 
ATOM     51  C37 UNL A   1      15.937  17.594   8.864  1.00  0.00    +0.000 C 
ATOM     63  C44 UNL A   1      17.164  17.055   8.334  1.00  0.00    +0.000 C 
ATOM     64  C45 UNL A   1      17.797  15.868   8.657  1.00  0.00    +0.000 C 
ATOM     65  C46 UNL A   1      18.978  15.782   7.911  1.00  0.00    +0.000 C 
ATOM     66  C47 UNL A   1      19.062  16.898   7.094  1.00  0.00    +0.000 C 
ATOM     67  N7  UNL A   1      17.944  17.672   7.366  1.00  0.00    +0.000 N 
ATOM     68  C48 UNL A   1      20.084  17.234   6.138  1.00  0.00    +0.000 C 
ATOM     80  C55 UNL A   1      20.087  18.340   5.353  1.00  0.00    +0.000 C 
ATOM     81  N8  UNL A   1      19.159  19.368   5.294  1.00  0.00    +0.000 N 
ATOM     82  C56 UNL A   1      19.617  20.214   4.405  1.00  0.00    +0.000 C 
ATOM     83  C57 UNL A   1      19.017  21.506   3.933  1.00  0.00    +0.000 C 
ATOM     95  C64 UNL A   1      17.859  21.924   4.473  1.00  0.00    +0.000 C 
ATOM     96  C65 UNL A   1      17.159  23.152   4.115  1.00  0.00    +0.000 C 
ATOM     97  C66 UNL A   1      16.060  23.263   4.875  1.00  0.00    +0.000 C 
ATOM     98  C67 UNL A   1      15.952  22.085   5.738  1.00  0.00    +0.000 C 
ATOM     99  N9  UNL A   1      17.075  21.355   5.447  1.00  0.00    +0.000 N 
ATOM    100  C68 UNL A   1      20.899  19.823   3.803  1.00  0.00    +0.000 C 
ATOM    101  C69 UNL A   1      21.125  18.658   4.393  1.00  0.00    +0.000 C 
ATOM    102  C70 UNL A   1      14.132  19.296   8.972  1.00  0.00    +0.000 C 
ATOM    103  C71 UNL A   1      13.799  20.418   8.346  1.00  0.00    +0.000 C 
ENDROOT
BRANCH   47   46
ATOM    104  C72 UNL A   1      13.787  23.852   7.564  1.00  0.00    +0.000 C 
ATOM    105  C73 UNL A   1      12.731  24.767   7.569  1.00  0.00    +0.000 C 
ATOM     43  C30 UNL A   1      11.715  24.656   6.615  1.00  0.00    +0.000 C 
ATOM     44  C31 UNL A   1      11.772  23.660   5.637  1.00  0.00    +0.000 C 
ATOM     45  C32 UNL A   1      12.783  22.706   5.679  1.00  0.00    +0.000 C 
ATOM     46  C33 UNL A   1      13.809  22.803   6.633  1.00  0.00    +0.000 C 
ATOM    143  H38 UNL A   1      11.066  23.630   4.885  1.00  0.00    +0.000 H 
ATOM    144  H39 UNL A   1      12.780  21.924   5.007  1.00  0.00    +0.000 H 
ATOM    155  H50 UNL A   1      14.553  23.948   8.249  1.00  0.00    +0.000 H 
ATOM    156  H51 UNL A   1      12.702  25.521   8.273  1.00  0.00    +0.000 H 
BRANCH   43    2
ATOM      1  O1  UNL A   1      10.229  26.101   7.715  1.00  0.00    +0.000 O 
ATOM      2  C1  UNL A   1      10.589  25.615   6.648  1.00  0.00    +0.000 C 
BRANCH    2    3
ATOM    106  H1  UNL A   1       9.003  25.670   5.419  1.00  0.00    +0.000 H 
ATOM      3  N1  UNL A   1       9.946  25.943   5.481  1.00  0.00    +0.000 N 
BRANCH    3    4
ATOM    108  H3  UNL A   1      11.535  26.761   4.470  1.00  0.00    +0.000 H 
ATOM    107  H2  UNL A   1      10.277  26.065   3.447  1.00  0.00    +0.000 H 
ATOM      4  C2  UNL A   1      10.482  26.641   4.325  1.00  0.00    +0.000 C 
BRANCH    4    5
ATOM    109  H4  UNL A   1       9.645  28.409   5.134  1.00  0.00    +0.000 H 
ATOM      5  C3  UNL A   1       9.868  28.023   4.161  1.00  0.00    +0.000 C 
ATOM    110  H5  UNL A   1       8.997  27.902   3.553  1.00  0.00    +0.000 H 
BRANCH    5    6
ATOM      6  C4  UNL A   1      10.767  29.030   3.441  1.00  0.00    +0.000 C 
ATOM    111  H6  UNL A   1      11.647  28.515   3.116  1.00  0.00    +0.000 H 
ATOM    112  H7  UNL A   1      10.967  29.809   4.146  1.00  0.00    +0.000 H 
BRANCH    6    7
ATOM    113  H8  UNL A   1      10.461  30.727   2.201  1.00  0.00    +0.000 H 
ATOM    114  H9  UNL A   1       9.077  29.599   2.336  1.00  0.00    +0.000 H 
ATOM      7  C5  UNL A   1      10.135  29.708   2.221  1.00  0.00    +0.000 C 
BRANCH    7    8
ATOM    115  H10 UNL A   1       9.818  29.471   0.127  1.00  0.00    +0.000 H 
ATOM    116  H11 UNL A   1      10.379  28.015   0.983  1.00  0.00    +0.000 H 
ATOM      8  C6  UNL A   1      10.482  29.073   0.866  1.00  0.00    +0.000 C 
BRANCH    8    9
ATOM      9  C7  UNL A   1      11.919  29.331   0.413  1.00  0.00    +0.000 C 
ATOM    117  H12 UNL A   1      12.573  28.646   0.909  1.00  0.00    +0.000 H 
ATOM    118  H13 UNL A   1      12.181  30.339   0.659  1.00  0.00    +0.000 H 
BRANCH    9   10
ATOM     10  N2  UNL A   1      12.044  29.154  -1.019  1.00  0.00    +0.000 N 
ATOM    119  H14 UNL A   1      11.314  29.524  -1.566  1.00  0.00    +0.000 H 
BRANCH   10   11
ATOM     11  C8  UNL A   1      13.051  28.537  -1.699  1.00  0.00    +0.000 C 
ATOM     12  O2  UNL A   1      14.211  28.776  -1.357  1.00  0.00    +0.000 O 
BRANCH   11   13
ATOM     13  C9  UNL A   1      12.751  27.578  -2.859  1.00  0.00    +0.000 C 
ATOM    120  H15 UNL A   1      11.687  27.480  -2.926  1.00  0.00    +0.000 H 
BRANCH   13   14
ATOM    121  H16 UNL A   1      13.435  26.041  -1.530  1.00  0.00    +0.000 H 
ATOM    122  H17 UNL A   1      14.226  26.047  -3.095  1.00  0.00    +0.000 H 
ATOM     14  C10 UNL A   1      13.293  26.167  -2.584  1.00  0.00    +0.000 C 
BRANCH   14   15
ATOM    123  H18 UNL A   1      12.239  24.507  -2.374  1.00  0.00    +0.000 H 
ATOM     15  O3  UNL A   1      12.371  25.181  -3.058  1.00  0.00    +0.000 O 
ENDBRANCH   14   15
ENDBRANCH   13   14
BRANCH   13   16
ATOM    124  H19 UNL A   1      14.105  28.459  -4.161  1.00  0.00    +0.000 H 
ATOM     16  N3  UNL A   1      13.181  28.121  -4.148  1.00  0.00    +0.000 N 
BRANCH   16   17
ATOM     17  C11 UNL A   1      12.519  28.237  -5.331  1.00  0.00    +0.000 C 
ATOM     18  O4  UNL A   1      12.487  27.193  -5.996  1.00  0.00    +0.000 O 
BRANCH   17   19
ATOM     19  C12 UNL A   1      11.630  29.453  -5.719  1.00  0.00    +0.000 C 
ATOM    125  H20 UNL A   1      10.737  29.012  -6.113  1.00  0.00    +0.000 H 
BRANCH   19   20
ATOM     20  C13 UNL A   1      12.369  30.314  -6.774  1.00  0.00    +0.000 C 
ATOM    126  H21 UNL A   1      13.395  30.399  -6.480  1.00  0.00    +0.000 H 
ATOM    127  H22 UNL A   1      11.871  31.260  -6.806  1.00  0.00    +0.000 H 
BRANCH   20   21
ATOM     21  S1  UNL A   1      12.310  29.628  -8.468  1.00  0.00    +0.000 S 
ATOM    128  H23 UNL A   1      11.015  29.406  -8.822  1.00  0.00    +0.000 H 
ENDBRANCH   20   21
ENDBRANCH   19   20
BRANCH   19   22
ATOM    129  H24 UNL A   1      10.293  29.935  -4.233  1.00  0.00    +0.000 H 
ATOM     22  N4  UNL A   1      11.119  30.295  -4.631  1.00  0.00    +0.000 N 
BRANCH   22   23
ATOM     23  C14 UNL A   1      11.517  31.453  -4.043  1.00  0.00    +0.000 C 
ATOM     24  O5  UNL A   1      12.690  31.401  -3.665  1.00  0.00    +0.000 O 
BRANCH   23   25
ATOM     25  C15 UNL A   1      10.699  32.777  -3.977  1.00  0.00    +0.000 C 
ATOM    130  H25 UNL A   1      11.397  33.562  -4.178  1.00  0.00    +0.000 H 
BRANCH   25   26
ATOM     26  C16 UNL A   1      10.047  33.006  -2.577  1.00  0.00    +0.000 C 
ATOM    131  H26 UNL A   1       9.331  32.221  -2.455  1.00  0.00    +0.000 H 
ATOM    132  H27 UNL A   1       9.723  34.022  -2.659  1.00  0.00    +0.000 H 
BRANCH   26   27
ATOM    133  H28 UNL A   1       9.392  32.229   0.001  1.00  0.00    +0.000 H 
ATOM    134  H29 UNL A   1      10.599  32.628   2.055  1.00  0.00    +0.000 H 
ATOM    135  H30 UNL A   1      12.762  33.718   2.007  1.00  0.00    +0.000 H 
ATOM    136  H31 UNL A   1      13.733  34.360  -0.121  1.00  0.00    +0.000 H 
ATOM    137  H32 UNL A   1      12.535  33.946  -2.182  1.00  0.00    +0.000 H 
ATOM     27  C17 UNL A   1      10.845  33.049  -1.283  1.00  0.00    +0.000 C 
ATOM     28  C18 UNL A   1      10.318  32.684  -0.038  1.00  0.00    +0.000 C 
ATOM     29  C19 UNL A   1      11.012  32.916   1.153  1.00  0.00    +0.000 C 
ATOM     30  C20 UNL A   1      12.253  33.535   1.129  1.00  0.00    +0.000 C 
ATOM     31  C21 UNL A   1      12.807  33.906  -0.092  1.00  0.00    +0.000 C 
ATOM     32  C22 UNL A   1      12.111  33.666  -1.284  1.00  0.00    +0.000 C 
ENDBRANCH   26   27
ENDBRANCH   25   26
BRANCH   25   33
ATOM     33  N5  UNL A   1       9.605  32.758  -4.963  1.00  0.00    +0.000 N 
ATOM    138  H33 UNL A   1       9.033  31.960  -4.899  1.00  0.00    +0.000 H 
BRANCH   33   34
ATOM     34  C23 UNL A   1       9.224  33.626  -5.951  1.00  0.00    +0.000 C 
ATOM     35  O6  UNL A   1       9.806  33.538  -7.032  1.00  0.00    +0.000 O 
BRANCH   34   36
ATOM     36  C24 UNL A   1       8.214  34.705  -5.768  1.00  0.00    +0.000 C 
ATOM     37  C25 UNL A   1       7.636  35.242  -6.932  1.00  0.00    +0.000 C 
ATOM     38  C26 UNL A   1       6.773  36.339  -6.861  1.00  0.00    +0.000 C 
ATOM     39  C27 UNL A   1       6.493  36.907  -5.626  1.00  0.00    +0.000 C 
ATOM     40  F1  UNL A   1       5.683  37.971  -5.554  1.00  0.00    +0.000 F 
ATOM     41  C28 UNL A   1       7.060  36.399  -4.464  1.00  0.00    +0.000 C 
ATOM     42  C29 UNL A   1       7.927  35.303  -4.535  1.00  0.00    +0.000 C 
ATOM    139  H34 UNL A   1       7.849  34.821  -7.849  1.00  0.00    +0.000 H 
ATOM    140  H35 UNL A   1       6.349  36.725  -7.719  1.00  0.00    +0.000 H 
ATOM    141  H36 UNL A   1       6.844  36.830  -3.552  1.00  0.00    +0.000 H 
ATOM    142  H37 UNL A   1       8.357  34.933  -3.674  1.00  0.00    +0.000 H 
ENDBRANCH   34   36
ENDBRANCH   33   34
ENDBRANCH   25   33
ENDBRANCH   23   25
ENDBRANCH   22   23
ENDBRANCH   19   22
ENDBRANCH   17   19
ENDBRANCH   16   17
ENDBRANCH   13   16
ENDBRANCH   11   13
ENDBRANCH   10   11
ENDBRANCH    9   10
ENDBRANCH    8    9
ENDBRANCH    7    8
ENDBRANCH    6    7
ENDBRANCH    5    6
ENDBRANCH    4    5
ENDBRANCH    3    4
ENDBRANCH    2    3
ENDBRANCH   43    2
ENDBRANCH   47   46
BRANCH   51   52
ATOM     52  C38 UNL A   1      15.241  16.827   9.950  1.00  0.00    +0.000 C 
ATOM     53  C39 UNL A   1      14.439  15.714   9.664  1.00  0.00    +0.000 C 
ATOM     54  F2  UNL A   1      14.227  15.342   8.393  1.00  0.00    +0.000 F 
ATOM     55  C40 UNL A   1      13.825  14.993  10.685  1.00  0.00    +0.000 C 
ATOM     56  F3  UNL A   1      13.033  13.953  10.387  1.00  0.00    +0.000 F 
ATOM     57  C41 UNL A   1      14.022  15.354  12.010  1.00  0.00    +0.000 C 
ATOM     58  F4  UNL A   1      13.436  14.655  12.991  1.00  0.00    +0.000 F 
ATOM     59  C42 UNL A   1      14.822  16.445  12.316  1.00  0.00    +0.000 C 
ATOM     60  F5  UNL A   1      15.021  16.790  13.595  1.00  0.00    +0.000 F 
ATOM     61  C43 UNL A   1      15.420  17.181  11.295  1.00  0.00    +0.000 C 
ATOM     62  F6  UNL A   1      16.181  18.236  11.623  1.00  0.00    +0.000 F 
ENDBRANCH   51   52
BRANCH   68   69
ATOM     69  C49 UNL A   1      21.232  16.286   5.974  1.00  0.00    +0.000 C 
ATOM     70  C50 UNL A   1      21.200  15.259   5.020  1.00  0.00    +0.000 C 
ATOM     71  F7  UNL A   1      20.113  15.084   4.254  1.00  0.00    +0.000 F 
ATOM     72  C51 UNL A   1      22.271  14.382   4.880  1.00  0.00    +0.000 C 
ATOM     73  F8  UNL A   1      22.202  13.379   3.993  1.00  0.00    +0.000 F 
ATOM     74  C52 UNL A   1      23.401  14.532   5.669  1.00  0.00    +0.000 C 
ATOM     75  F9  UNL A   1      24.432  13.686   5.534  1.00  0.00    +0.000 F 
ATOM     76  C53 UNL A   1      23.461  15.553   6.606  1.00  0.00    +0.000 C 
ATOM     77  F10 UNL A   1      24.556  15.703   7.364  1.00  0.00    +0.000 F 
ATOM     78  C54 UNL A   1      22.383  16.418   6.765  1.00  0.00    +0.000 C 
ATOM     79  F11 UNL A   1      22.460  17.388   7.689  1.00  0.00    +0.000 F 
ENDBRANCH   68   69
BRANCH   83   84
ATOM     84  C58 UNL A   1      19.671  22.321   2.880  1.00  0.00    +0.000 C 
ATOM     85  C59 UNL A   1      19.461  22.044   1.522  1.00  0.00    +0.000 C 
ATOM     86  F12 UNL A   1      18.699  21.002   1.162  1.00  0.00    +0.000 F 
ATOM     87  C60 UNL A   1      20.056  22.822   0.532  1.00  0.00    +0.000 C 
ATOM     88  F13 UNL A   1      19.864  22.518  -0.759  1.00  0.00    +0.000 F 
ATOM     89  C61 UNL A   1      20.851  23.905   0.880  1.00  0.00    +0.000 C 
ATOM     90  F14 UNL A   1      21.412  24.660  -0.074  1.00  0.00    +0.000 F 
ATOM     91  C62 UNL A   1      21.064  24.202   2.217  1.00  0.00    +0.000 C 
ATOM     92  F15 UNL A   1      21.819  25.256   2.557  1.00  0.00    +0.000 F 
ATOM     93  C63 UNL A   1      20.492  23.409   3.208  1.00  0.00    +0.000 C 
ATOM     94  F16 UNL A   1      20.717  23.717   4.494  1.00  0.00    +0.000 F 
ENDBRANCH   83   84
TORSDOF 30
ENDMDL
MODEL 2
REMARK VINA RESULT:      -8.5     25.011     30.733
ROOT
ATOM    145  H40 UNL A   1      13.419  46.852   2.932  1.00  0.00    +0.000 H 
ATOM    146  H41 UNL A   1      15.039  46.952   0.891  1.00  0.00    +0.000 H 
ATOM    147  H42 UNL A   1      14.905  50.708   2.630  1.00  0.00    +0.000 H 
ATOM    148  H43 UNL A   1      16.661  56.836   2.621  1.00  0.00    +0.000 H 
ATOM    149  H44 UNL A   1      15.220  56.696   4.706  1.00  0.00    +0.000 H 
ATOM    150  H45 UNL A   1      15.315  52.918   2.976  1.00  0.00    +0.000 H 
ATOM    151  H46 UNL A   1      18.385  53.299  -0.978  1.00  0.00    +0.000 H 
ATOM    152  H47 UNL A   1      17.864  50.836  -1.449  1.00  0.00    +0.000 H 
ATOM    153  H48 UNL A   1      11.919  50.428   6.653  1.00  0.00    +0.000 H 
ATOM    154  H49 UNL A   1      12.219  52.949   6.992  1.00  0.00    +0.000 H 
ATOM     47  C34 UNL A   1      14.028  54.146   5.139  1.00  0.00    +0.000 C 
ATOM     48  C35 UNL A   1      13.570  52.719   5.186  1.00  0.00    +0.000 C 
ATOM     49  N6  UNL A   1      13.887  51.727   4.392  1.00  0.00    +0.000 N 
ATOM     50  C36 UNL A   1      13.215  50.616   4.882  1.00  0.00    +0.000 C 
ATOM     51  C37 UNL A   1      13.205  49.353   4.392  1.00  0.00    +0.000 C 
ATOM     63  C44 UNL A   1      13.919  48.932   3.213  1.00  0.00    +0.000 C 
ATOM     64  C45 UNL A   1      13.944  47.684   2.617  1.00  0.00    +0.000 C 
ATOM     65  C46 UNL A   1      14.804  47.740   1.514  1.00  0.00    +0.000 C 
ATOM     66  C47 UNL A   1      15.285  49.034   1.400  1.00  0.00    +0.000 C 
ATOM     67  N7  UNL A   1      14.737  49.754   2.451  1.00  0.00    +0.000 N 
ATOM     68  C48 UNL A   1      16.178  49.574   0.408  1.00  0.00    +0.000 C 
ATOM     80  C55 UNL A   1      16.590  50.864   0.347  1.00  0.00    +0.000 C 
ATOM     81  N8  UNL A   1      16.276  51.919   1.189  1.00  0.00    +0.000 N 
ATOM     82  C56 UNL A   1      16.938  52.953   0.732  1.00  0.00    +0.000 C 
ATOM     83  C57 UNL A   1      16.970  54.360   1.252  1.00  0.00    +0.000 C 
ATOM     95  C64 UNL A   1      16.258  54.666   2.351  1.00  0.00    +0.000 C 
ATOM     96  C65 UNL A   1      16.189  55.987   2.968  1.00  0.00    +0.000 C 
ATOM     97  C66 UNL A   1      15.415  55.916   4.060  1.00  0.00    +0.000 C 
ATOM     98  C67 UNL A   1      14.890  54.555   4.188  1.00  0.00    +0.000 C 
ATOM     99  N9  UNL A   1      15.461  53.877   3.143  1.00  0.00    +0.000 N 
ATOM    100  C68 UNL A   1      17.760  52.668  -0.451  1.00  0.00    +0.000 C 
ATOM    101  C69 UNL A   1      17.486  51.389  -0.663  1.00  0.00    +0.000 C 
ATOM    102  C70 UNL A   1      12.486  51.050   6.056  1.00  0.00    +0.000 C 
ATOM    103  C71 UNL A   1      12.641  52.351   6.264  1.00  0.00    +0.000 C 
ENDROOT
BRANCH   47   46
ATOM    104  C72 UNL A   1      14.203  55.385   7.322  1.00  0.00    +0.000 C 
ATOM    105  C73 UNL A   1      13.731  56.355   8.211  1.00  0.00    +0.000 C 
ATOM     43  C30 UNL A   1      12.608  57.116   7.874  1.00  0.00    +0.000 C 
ATOM     44  C31 UNL A   1      11.980  56.936   6.638  1.00  0.00    +0.000 C 
ATOM     45  C32 UNL A   1      12.404  55.920   5.788  1.00  0.00    +0.000 C 
ATOM     46  C33 UNL A   1      13.529  55.147   6.115  1.00  0.00    +0.000 C 
ATOM    143  H38 UNL A   1      11.203  57.553   6.357  1.00  0.00    +0.000 H 
ATOM    144  H39 UNL A   1      11.890  55.734   4.913  1.00  0.00    +0.000 H 
ATOM    155  H50 UNL A   1      15.048  54.841   7.556  1.00  0.00    +0.000 H 
ATOM    156  H51 UNL A   1      14.211  56.509   9.111  1.00  0.00    +0.000 H 
BRANCH   43    2
ATOM      1  O1  UNL A   1      12.653  59.213   8.924  1.00  0.00    +0.000 O 
ATOM      2  C1  UNL A   1      12.103  58.120   8.835  1.00  0.00    +0.000 C 
BRANCH    2    3
ATOM    106  H1  UNL A   1      10.469  58.575   9.908  1.00  0.00    +0.000 H 
ATOM      3  N1  UNL A   1      11.029  57.814   9.631  1.00  0.00    +0.000 N 
BRANCH    3    4
ATOM    108  H3  UNL A   1       9.752  56.208   9.559  1.00  0.00    +0.000 H 
ATOM    107  H2  UNL A   1      11.419  55.818   9.989  1.00  0.00    +0.000 H 
ATOM      4  C2  UNL A   1      10.612  56.510  10.117  1.00  0.00    +0.000 C 
BRANCH    4    5
ATOM    109  H4  UNL A   1       9.208  56.238  11.679  1.00  0.00    +0.000 H 
ATOM      5  C3  UNL A   1      10.229  56.548  11.590  1.00  0.00    +0.000 C 
ATOM    110  H5  UNL A   1      10.387  57.553  11.922  1.00  0.00    +0.000 H 
BRANCH    5    6
ATOM      6  C4  UNL A   1      11.083  55.651  12.487  1.00  0.00    +0.000 C 
ATOM    111  H6  UNL A   1      10.452  54.883  12.884  1.00  0.00    +0.000 H 
ATOM    112  H7  UNL A   1      11.499  56.288  13.237  1.00  0.00    +0.000 H 
BRANCH    6    7
ATOM    113  H8  UNL A   1      12.860  55.741  11.327  1.00  0.00    +0.000 H 
ATOM    114  H9  UNL A   1      11.849  54.282  11.093  1.00  0.00    +0.000 H 
ATOM      7  C5  UNL A   1      12.269  54.977  11.789  1.00  0.00    +0.000 C 
BRANCH    7    8
ATOM    115  H10 UNL A   1      12.659  53.281  13.018  1.00  0.00    +0.000 H 
ATOM    116  H11 UNL A   1      13.453  54.790  13.528  1.00  0.00    +0.000 H 
ATOM      8  C6  UNL A   1      13.189  54.157  12.707  1.00  0.00    +0.000 C 
BRANCH    8    9
ATOM      9  C7  UNL A   1      14.495  53.720  12.043  1.00  0.00    +0.000 C 
ATOM    117  H12 UNL A   1      15.227  53.529  12.799  1.00  0.00    +0.000 H 
ATOM    118  H13 UNL A   1      14.828  54.502  11.393  1.00  0.00    +0.000 H 
BRANCH    9   10
ATOM     10  N2  UNL A   1      14.295  52.518  11.261  1.00  0.00    +0.000 N 
ATOM    119  H14 UNL A   1      13.470  52.483  10.725  1.00  0.00    +0.000 H 
BRANCH   10   11
ATOM     11  C8  UNL A   1      15.112  51.431  11.179  1.00  0.00    +0.000 C 
ATOM     12  O2  UNL A   1      16.323  51.604  11.325  1.00  0.00    +0.000 O 
BRANCH   11   13
ATOM     13  C9  UNL A   1      14.542  50.031  10.906  1.00  0.00    +0.000 C 
ATOM    120  H15 UNL A   1      15.245  49.320  11.286  1.00  0.00    +0.000 H 
BRANCH   13   14
ATOM    121  H16 UNL A   1      14.996  48.882   9.155  1.00  0.00    +0.000 H 
ATOM    122  H17 UNL A   1      14.788  50.597   8.857  1.00  0.00    +0.000 H 
ATOM     14  C10 UNL A   1      14.421  49.751   9.400  1.00  0.00    +0.000 C 
BRANCH   14   15
ATOM    123  H18 UNL A   1      12.791  50.152   8.354  1.00  0.00    +0.000 H 
ATOM     15  O3  UNL A   1      13.052  49.526   9.047  1.00  0.00    +0.000 O 
ENDBRANCH   14   15
ENDBRANCH   13   14
BRANCH   13   16
ATOM    124  H19 UNL A   1      12.478  49.960  11.121  1.00  0.00    +0.000 H 
ATOM     16  N3  UNL A   1      13.298  49.791  11.639  1.00  0.00    +0.000 N 
BRANCH   16   17
ATOM     17  C11 UNL A   1      13.084  49.375  12.917  1.00  0.00    +0.000 C 
ATOM     18  O4  UNL A   1      13.404  50.204  13.779  1.00  0.00    +0.000 O 
BRANCH   17   19
ATOM     19  C12 UNL A   1      12.257  48.113  13.297  1.00  0.00    +0.000 C 
ATOM    125  H20 UNL A   1      12.580  47.876  14.290  1.00  0.00    +0.000 H 
BRANCH   19   20
ATOM     20  C13 UNL A   1      12.569  46.973  12.295  1.00  0.00    +0.000 C 
ATOM    126  H21 UNL A   1      13.614  47.003  12.067  1.00  0.00    +0.000 H 
ATOM    127  H22 UNL A   1      11.956  47.142  11.434  1.00  0.00    +0.000 H 
BRANCH   20   21
ATOM     21  S1  UNL A   1      12.161  45.303  12.916  1.00  0.00    +0.000 S 
ATOM    128  H23 UNL A   1      13.309  44.601  13.118  1.00  0.00    +0.000 H 
ENDBRANCH   20   21
ENDBRANCH   19   20
BRANCH   19   22
ATOM    129  H24 UNL A   1      10.396  47.520  13.939  1.00  0.00    +0.000 H 
ATOM     22  N4  UNL A   1      10.808  48.276  13.460  1.00  0.00    +0.000 N 
BRANCH   22   23
ATOM     23  C14 UNL A   1       9.900  49.222  13.105  1.00  0.00    +0.000 C 
ATOM     24  O5  UNL A   1       9.165  48.839  12.191  1.00  0.00    +0.000 O 
BRANCH   23   25
ATOM     25  C15 UNL A   1       9.653  50.576  13.834  1.00  0.00    +0.000 C 
ATOM    130  H25 UNL A   1       8.590  50.697  13.875  1.00  0.00    +0.000 H 
BRANCH   25   26
ATOM     26  C16 UNL A   1      10.285  51.786  13.077  1.00  0.00    +0.000 C 
ATOM    131  H26 UNL A   1      11.340  51.609  13.071  1.00  0.00    +0.000 H 
ATOM    132  H27 UNL A   1       9.882  52.612  13.624  1.00  0.00    +0.000 H 
BRANCH   26   27
ATOM    133  H28 UNL A   1      11.621  51.396  10.681  1.00  0.00    +0.000 H 
ATOM    134  H29 UNL A   1      11.116  52.307   8.501  1.00  0.00    +0.000 H 
ATOM    135  H30 UNL A   1       9.124  53.646   8.169  1.00  0.00    +0.000 H 
ATOM    136  H31 UNL A   1       7.613  54.025  10.029  1.00  0.00    +0.000 H 
ATOM    137  H32 UNL A   1       8.106  53.099  12.209  1.00  0.00    +0.000 H 
ATOM     27  C17 UNL A   1       9.916  52.161  11.650  1.00  0.00    +0.000 C 
ATOM     28  C18 UNL A   1      10.762  51.955  10.553  1.00  0.00    +0.000 C 
ATOM     29  C19 UNL A   1      10.475  52.484   9.291  1.00  0.00    +0.000 C 
ATOM     30  C20 UNL A   1       9.332  53.246   9.097  1.00  0.00    +0.000 C 
ATOM     31  C21 UNL A   1       8.469  53.466  10.166  1.00  0.00    +0.000 C 
ATOM     32  C22 UNL A   1       8.757  52.929  11.427  1.00  0.00    +0.000 C 
ENDBRANCH   26   27
ENDBRANCH   25   26
BRANCH   25   33
ATOM     33  N5  UNL A   1      10.248  50.553  15.182  1.00  0.00    +0.000 N 
ATOM    138  H33 UNL A   1      11.204  50.785  15.192  1.00  0.00    +0.000 H 
BRANCH   33   34
ATOM     34  C23 UNL A   1       9.739  50.274  16.422  1.00  0.00    +0.000 C 
ATOM     35  O6  UNL A   1       8.818  49.459  16.481  1.00  0.00    +0.000 O 
BRANCH   34   36
ATOM     36  C24 UNL A   1      10.180  50.946  17.674  1.00  0.00    +0.000 C 
ATOM     37  C25 UNL A   1       9.445  50.669  18.841  1.00  0.00    +0.000 C 
ATOM     38  C26 UNL A   1       9.711  51.350  20.032  1.00  0.00    +0.000 C 
ATOM     39  C27 UNL A   1      10.706  52.316  20.058  1.00  0.00    +0.000 C 
ATOM     40  F1  UNL A   1      10.951  52.985  21.192  1.00  0.00    +0.000 F 
ATOM     41  C28 UNL A   1      11.439  52.613  18.915  1.00  0.00    +0.000 C 
ATOM     42  C29 UNL A   1      11.170  51.934  17.722  1.00  0.00    +0.000 C 
ATOM    139  H34 UNL A   1       8.702  49.953  18.818  1.00  0.00    +0.000 H 
ATOM    140  H35 UNL A   1       9.170  51.136  20.886  1.00  0.00    +0.000 H 
ATOM    141  H36 UNL A   1      12.177  53.333  18.947  1.00  0.00    +0.000 H 
ATOM    142  H37 UNL A   1      11.706  52.163  16.871  1.00  0.00    +0.000 H 
ENDBRANCH   34   36
ENDBRANCH   33   34
ENDBRANCH   25   33
ENDBRANCH   23   25
ENDBRANCH   22   23
ENDBRANCH   19   22
ENDBRANCH   17   19
ENDBRANCH   16   17
ENDBRANCH   13   16
ENDBRANCH   11   13
ENDBRANCH   10   11
ENDBRANCH    9   10
ENDBRANCH    8    9
ENDBRANCH    7    8
ENDBRANCH    6    7
ENDBRANCH    5    6
ENDBRANCH    4    5
ENDBRANCH    3    4
ENDBRANCH    2    3
ENDBRANCH   43    2
ENDBRANCH   47   46
BRANCH   51   52
ATOM     52  C38 UNL A   1      12.406  48.324   5.137  1.00  0.00    +0.000 C 
ATOM     53  C39 UNL A   1      11.085  48.021   4.780  1.00  0.00    +0.000 C 
ATOM     54  F2  UNL A   1      10.480  48.694   3.790  1.00  0.00    +0.000 F 
ATOM     55  C40 UNL A   1      10.367  47.041   5.461  1.00  0.00    +0.000 C 
ATOM     56  F3  UNL A   1       9.093  46.792   5.127  1.00  0.00    +0.000 F 
ATOM     57  C41 UNL A   1      10.963  46.329   6.492  1.00  0.00    +0.000 C 
ATOM     58  F4  UNL A   1      10.273  45.382   7.141  1.00  0.00    +0.000 F 
ATOM     59  C42 UNL A   1      12.274  46.604   6.853  1.00  0.00    +0.000 C 
ATOM     60  F5  UNL A   1      12.854  45.911   7.842  1.00  0.00    +0.000 F 
ATOM     61  C43 UNL A   1      12.987  47.599   6.188  1.00  0.00    +0.000 C 
ATOM     62  F6  UNL A   1      14.250  47.848   6.566  1.00  0.00    +0.000 F 
ENDBRANCH   51   52
BRANCH   68   69
ATOM     69  C49 UNL A   1      16.685  48.652  -0.657  1.00  0.00    +0.000 C 
ATOM     70  C50 UNL A   1      15.931  48.382  -1.808  1.00  0.00    +0.000 C 
ATOM     71  F7  UNL A   1      14.712  48.923  -1.959  1.00  0.00    +0.000 F 
ATOM     72  C51 UNL A   1      16.411  47.519  -2.790  1.00  0.00    +0.000 C 
ATOM     73  F8  UNL A   1      15.655  47.239  -3.860  1.00  0.00    +0.000 F 
ATOM     74  C52 UNL A   1      17.661  46.935  -2.651  1.00  0.00    +0.000 C 
ATOM     75  F9  UNL A   1      18.121  46.105  -3.597  1.00  0.00    +0.000 F 
ATOM     76  C53 UNL A   1      18.431  47.204  -1.530  1.00  0.00    +0.000 C 
ATOM     77  F10 UNL A   1      19.643  46.646  -1.399  1.00  0.00    +0.000 F 
ATOM     78  C54 UNL A   1      17.945  48.048  -0.536  1.00  0.00    +0.000 C 
ATOM     79  F11 UNL A   1      18.703  48.279   0.547  1.00  0.00    +0.000 F 
ENDBRANCH   68   69
BRANCH   83   84
ATOM     84  C58 UNL A   1      17.760  55.416   0.573  1.00  0.00    +0.000 C 
ATOM     85  C59 UNL A   1      19.020  55.794   1.057  1.00  0.00    +0.000 C 
ATOM     86  F12 UNL A   1      19.505  55.231   2.173  1.00  0.00    +0.000 F 
ATOM     87  C60 UNL A   1      19.774  56.769   0.408  1.00  0.00    +0.000 C 
ATOM     88  F13 UNL A   1      20.963  57.134   0.907  1.00  0.00    +0.000 F 
ATOM     89  C61 UNL A   1      19.293  57.367  -0.748  1.00  0.00    +0.000 C 
ATOM     90  F14 UNL A   1      20.025  58.296  -1.378  1.00  0.00    +0.000 F 
ATOM     91  C62 UNL A   1      18.053  57.002  -1.248  1.00  0.00    +0.000 C 
ATOM     92  F15 UNL A   1      17.592  57.566  -2.373  1.00  0.00    +0.000 F 
ATOM     93  C63 UNL A   1      17.287  56.046  -0.586  1.00  0.00    +0.000 C 
ATOM     94  F16 UNL A   1      16.089  55.713  -1.090  1.00  0.00    +0.000 F 
ENDBRANCH   83   84
TORSDOF 30
ENDMDL
MODEL 3
REMARK VINA RESULT:      -8.2     51.834     55.669
ROOT
ATOM    145  H40 UNL A   1      45.820  14.246  43.788  1.00  0.00    +0.000 H 
ATOM    146  H41 UNL A   1      47.700  16.022  43.446  1.00  0.00    +0.000 H 
ATOM    147  H42 UNL A   1      45.337  17.224  46.627  1.00  0.00    +0.000 H 
ATOM    148  H43 UNL A   1      43.931  21.533  51.110  1.00  0.00    +0.000 H 
ATOM    149  H44 UNL A   1      42.209  19.721  51.552  1.00  0.00    +0.000 H 
ATOM    150  H45 UNL A   1      44.546  18.492  48.342  1.00  0.00    +0.000 H 
ATOM    151  H46 UNL A   1      48.040  22.049  47.750  1.00  0.00    +0.000 H 
ATOM    152  H47 UNL A   1      48.892  20.690  45.754  1.00  0.00    +0.000 H 
ATOM    153  H48 UNL A   1      41.847  13.695  47.364  1.00  0.00    +0.000 H 
ATOM    154  H49 UNL A   1      40.820  15.161  49.196  1.00  0.00    +0.000 H 
ATOM     47  C34 UNL A   1      42.288  17.553  49.707  1.00  0.00    +0.000 C 
ATOM     48  C35 UNL A   1      42.562  16.510  48.664  1.00  0.00    +0.000 C 
ATOM     49  N6  UNL A   1      43.515  16.475  47.766  1.00  0.00    +0.000 N 
ATOM     50  C36 UNL A   1      43.337  15.289  47.068  1.00  0.00    +0.000 C 
ATOM     51  C37 UNL A   1      44.060  14.808  46.027  1.00  0.00    +0.000 C 
ATOM     63  C44 UNL A   1      45.184  15.487  45.434  1.00  0.00    +0.000 C 
ATOM     64  C45 UNL A   1      45.957  15.098  44.355  1.00  0.00    +0.000 C 
ATOM     65  C46 UNL A   1      46.958  16.058  44.163  1.00  0.00    +0.000 C 
ATOM     66  C47 UNL A   1      46.785  17.064  45.098  1.00  0.00    +0.000 C 
ATOM     67  N7  UNL A   1      45.695  16.700  45.874  1.00  0.00    +0.000 N 
ATOM     68  C48 UNL A   1      47.555  18.268  45.274  1.00  0.00    +0.000 C 
ATOM     80  C55 UNL A   1      47.311  19.224  46.203  1.00  0.00    +0.000 C 
ATOM     81  N8  UNL A   1      46.318  19.266  47.169  1.00  0.00    +0.000 N 
ATOM     82  C56 UNL A   1      46.514  20.375  47.838  1.00  0.00    +0.000 C 
ATOM     83  C57 UNL A   1      45.734  20.933  48.992  1.00  0.00    +0.000 C 
ATOM     95  C64 UNL A   1      44.688  20.237  49.470  1.00  0.00    +0.000 C 
ATOM     96  C65 UNL A   1      43.838  20.652  50.581  1.00  0.00    +0.000 C 
ATOM     97  C66 UNL A   1      42.919  19.702  50.803  1.00  0.00    +0.000 C 
ATOM     98  C67 UNL A   1      43.083  18.635  49.814  1.00  0.00    +0.000 C 
ATOM     99  N9  UNL A   1      44.171  19.026  49.078  1.00  0.00    +0.000 N 
ATOM    100  C68 UNL A   1      47.666  21.162  47.378  1.00  0.00    +0.000 C 
ATOM    101  C69 UNL A   1      48.097  20.431  46.359  1.00  0.00    +0.000 C 
ATOM    102  C70 UNL A   1      42.196  14.621  47.657  1.00  0.00    +0.000 C 
ATOM    103  C71 UNL A   1      41.657  15.354  48.623  1.00  0.00    +0.000 C 
ENDROOT
BRANCH   47   46
ATOM    104  C72 UNL A   1      39.863  17.924  50.264  1.00  0.00    +0.000 C 
ATOM    105  C73 UNL A   1      38.779  17.775  51.134  1.00  0.00    +0.000 C 
ATOM     43  C30 UNL A   1      38.951  17.104  52.348  1.00  0.00    +0.000 C 
ATOM     44  C31 UNL A   1      40.192  16.550  52.677  1.00  0.00    +0.000 C 
ATOM     45  C32 UNL A   1      41.286  16.763  51.846  1.00  0.00    +0.000 C 
ATOM     46  C33 UNL A   1      41.128  17.437  50.625  1.00  0.00    +0.000 C 
ATOM    143  H38 UNL A   1      40.296  15.985  53.534  1.00  0.00    +0.000 H 
ATOM    144  H39 UNL A   1      42.219  16.424  52.128  1.00  0.00    +0.000 H 
ATOM    155  H50 UNL A   1      39.732  18.394  49.355  1.00  0.00    +0.000 H 
ATOM    156  H51 UNL A   1      37.855  18.158  50.880  1.00  0.00    +0.000 H 
BRANCH   43    2
ATOM      1  O1  UNL A   1      36.663  16.893  52.823  1.00  0.00    +0.000 O 
ATOM      2  C1  UNL A   1      37.802  16.977  53.270  1.00  0.00    +0.000 C 
BRANCH    2    3
ATOM    106  H1  UNL A   1      38.960  17.047  54.909  1.00  0.00    +0.000 H 
ATOM      3  N1  UNL A   1      38.020  16.967  54.625  1.00  0.00    +0.000 N 
BRANCH    3    4
ATOM    108  H3  UNL A   1      36.103  16.589  55.254  1.00  0.00    +0.000 H 
ATOM    107  H2  UNL A   1      37.369  16.101  56.382  1.00  0.00    +0.000 H 
ATOM      4  C2  UNL A   1      37.042  16.851  55.693  1.00  0.00    +0.000 C 
BRANCH    4    5
ATOM    109  H4  UNL A   1      37.800  18.426  56.887  1.00  0.00    +0.000 H 
ATOM      5  C3  UNL A   1      36.863  18.162  56.443  1.00  0.00    +0.000 C 
ATOM    110  H5  UNL A   1      36.092  17.998  57.167  1.00  0.00    +0.000 H 
BRANCH    5    6
ATOM      6  C4  UNL A   1      36.401  19.330  55.570  1.00  0.00    +0.000 C 
ATOM    111  H6  UNL A   1      37.044  19.380  54.716  1.00  0.00    +0.000 H 
ATOM    112  H7  UNL A   1      36.447  20.202  56.187  1.00  0.00    +0.000 H 
BRANCH    6    7
ATOM    113  H8  UNL A   1      34.352  18.859  55.871  1.00  0.00    +0.000 H 
ATOM    114  H9  UNL A   1      34.978  18.592  54.215  1.00  0.00    +0.000 H 
ATOM      7  C5  UNL A   1      34.955  19.234  55.070  1.00  0.00    +0.000 C 
BRANCH    7    8
ATOM    115  H10 UNL A   1      33.856  20.384  53.653  1.00  0.00    +0.000 H 
ATOM    116  H11 UNL A   1      35.139  21.264  54.518  1.00  0.00    +0.000 H 
ATOM      8  C6  UNL A   1      34.339  20.558  54.592  1.00  0.00    +0.000 C 
BRANCH    8    9
ATOM      9  C7  UNL A   1      33.314  21.148  55.560  1.00  0.00    +0.000 C 
ATOM    117  H12 UNL A   1      32.646  20.375  55.879  1.00  0.00    +0.000 H 
ATOM    118  H13 UNL A   1      32.772  21.922  55.058  1.00  0.00    +0.000 H 
BRANCH    9   10
ATOM     10  N2  UNL A   1      33.971  21.715  56.718  1.00  0.00    +0.000 N 
ATOM    119  H14 UNL A   1      34.588  22.462  56.544  1.00  0.00    +0.000 H 
BRANCH   10   11
ATOM     11  C8  UNL A   1      33.837  21.340  58.022  1.00  0.00    +0.000 C 
ATOM     12  O2  UNL A   1      34.811  21.474  58.766  1.00  0.00    +0.000 O 
BRANCH   11   13
ATOM     13  C9  UNL A   1      32.516  20.761  58.547  1.00  0.00    +0.000 C 
ATOM    120  H15 UNL A   1      31.846  20.685  57.715  1.00  0.00    +0.000 H 
BRANCH   13   14
ATOM    121  H16 UNL A   1      32.352  21.647  60.492  1.00  0.00    +0.000 H 
ATOM    122  H17 UNL A   1      30.819  21.416  59.674  1.00  0.00    +0.000 H 
ATOM     14  C10 UNL A   1      31.842  21.707  59.553  1.00  0.00    +0.000 C 
BRANCH   14   15
ATOM    123  H18 UNL A   1      31.510  23.648  59.740  1.00  0.00    +0.000 H 
ATOM     15  O3  UNL A   1      31.891  23.055  59.074  1.00  0.00    +0.000 O 
ENDBRANCH   14   15
ENDBRANCH   13   14
BRANCH   13   16
ATOM    124  H19 UNL A   1      33.550  19.213  59.466  1.00  0.00    +0.000 H 
ATOM     16  N3  UNL A   1      32.675  19.398  59.054  1.00  0.00    +0.000 N 
BRANCH   16   17
ATOM     17  C11 UNL A   1      31.817  18.341  59.052  1.00  0.00    +0.000 C 
ATOM     18  O4  UNL A   1      32.361  17.249  59.262  1.00  0.00    +0.000 O 
BRANCH   17   19
ATOM     19  C12 UNL A   1      30.267  18.474  59.078  1.00  0.00    +0.000 C 
ATOM    125  H20 UNL A   1      30.090  19.393  59.599  1.00  0.00    +0.000 H 
BRANCH   19   20
ATOM     20  C13 UNL A   1      29.659  17.257  59.820  1.00  0.00    +0.000 C 
ATOM    126  H21 UNL A   1      30.289  16.409  59.646  1.00  0.00    +0.000 H 
ATOM    127  H22 UNL A   1      28.671  17.121  59.432  1.00  0.00    +0.000 H 
BRANCH   20   21
ATOM     21  S1  UNL A   1      29.493  17.493  61.625  1.00  0.00    +0.000 S 
ATOM    128  H23 UNL A   1      29.885  16.360  62.268  1.00  0.00    +0.000 H 
ENDBRANCH   20   21
ENDBRANCH   19   20
BRANCH   19   22
ATOM    129  H24 UNL A   1      29.151  17.878  57.457  1.00  0.00    +0.000 H 
ATOM     22  N4  UNL A   1      29.584  18.694  57.798  1.00  0.00    +0.000 N 
BRANCH   22   23
ATOM     23  C14 UNL A   1      29.409  19.757  56.971  1.00  0.00    +0.000 C 
ATOM     24  O5  UNL A   1      30.138  19.696  55.977  1.00  0.00    +0.000 O 
BRANCH   23   25
ATOM     25  C15 UNL A   1      28.321  20.862  57.114  1.00  0.00    +0.000 C 
ATOM    130  H25 UNL A   1      28.730  21.591  57.783  1.00  0.00    +0.000 H 
BRANCH   25   26
ATOM     26  C16 UNL A   1      26.984  20.311  57.700  1.00  0.00    +0.000 C 
ATOM    131  H26 UNL A   1      27.258  19.520  58.365  1.00  0.00    +0.000 H 
ATOM    132  H27 UNL A   1      26.434  20.097  56.807  1.00  0.00    +0.000 H 
BRANCH   26   27
ATOM    133  H28 UNL A   1      24.287  20.797  57.284  1.00  0.00    +0.000 H 
ATOM    134  H29 UNL A   1      22.861  22.429  58.350  1.00  0.00    +0.000 H 
ATOM    135  H30 UNL A   1      23.717  23.809  60.148  1.00  0.00    +0.000 H 
ATOM    136  H31 UNL A   1      26.002  23.507  60.905  1.00  0.00    +0.000 H 
ATOM    137  H32 UNL A   1      27.428  21.860  59.851  1.00  0.00    +0.000 H 
ATOM     27  C17 UNL A   1      25.990  21.174  58.463  1.00  0.00    +0.000 C 
ATOM     28  C18 UNL A   1      24.664  21.368  58.056  1.00  0.00    +0.000 C 
ATOM     29  C19 UNL A   1      23.837  22.315  58.669  1.00  0.00    +0.000 C 
ATOM     30  C20 UNL A   1      24.323  23.103  59.702  1.00  0.00    +0.000 C 
ATOM     31  C21 UNL A   1      25.634  22.931  60.132  1.00  0.00    +0.000 C 
ATOM     32  C22 UNL A   1      26.458  21.977  59.520  1.00  0.00    +0.000 C 
ENDBRANCH   26   27
ENDBRANCH   25   26
BRANCH   25   33
ATOM     33  N5  UNL A   1      28.006  21.450  55.800  1.00  0.00    +0.000 N 
ATOM    138  H33 UNL A   1      27.826  20.779  55.103  1.00  0.00    +0.000 H 
BRANCH   33   34
ATOM     34  C23 UNL A   1      27.913  22.741  55.353  1.00  0.00    +0.000 C 
ATOM     35  O6  UNL A   1      28.819  23.152  54.630  1.00  0.00    +0.000 O 
BRANCH   34   36
ATOM     36  C24 UNL A   1      26.831  23.683  55.750  1.00  0.00    +0.000 C 
ATOM     37  C25 UNL A   1      27.096  24.540  56.833  1.00  0.00    +0.000 C 
ATOM     38  C26 UNL A   1      26.096  25.368  57.351  1.00  0.00    +0.000 C 
ATOM     39  C27 UNL A   1      24.827  25.337  56.791  1.00  0.00    +0.000 C 
ATOM     40  F1  UNL A   1      23.860  26.113  57.296  1.00  0.00    +0.000 F 
ATOM     41  C28 UNL A   1      24.540  24.492  55.726  1.00  0.00    +0.000 C 
ATOM     42  C29 UNL A   1      25.540  23.660  55.210  1.00  0.00    +0.000 C 
ATOM    139  H34 UNL A   1      28.039  24.559  57.251  1.00  0.00    +0.000 H 
ATOM    140  H35 UNL A   1      26.300  25.998  58.144  1.00  0.00    +0.000 H 
ATOM    141  H36 UNL A   1      23.593  24.477  55.318  1.00  0.00    +0.000 H 
ATOM    142  H37 UNL A   1      25.323  23.024  54.427  1.00  0.00    +0.000 H 
ENDBRANCH   34   36
ENDBRANCH   33   34
ENDBRANCH   25   33
ENDBRANCH   23   25
ENDBRANCH   22   23
ENDBRANCH   19   22
ENDBRANCH   17   19
ENDBRANCH   16   17
ENDBRANCH   13   16
ENDBRANCH   11   13
ENDBRANCH   10   11
ENDBRANCH    9   10
ENDBRANCH    8    9
ENDBRANCH    7    8
ENDBRANCH    6    7
ENDBRANCH    5    6
ENDBRANCH    4    5
ENDBRANCH    3    4
ENDBRANCH    2    3
ENDBRANCH   43    2
ENDBRANCH   47   46
BRANCH   51   52
ATOM     52  C38 UNL A   1      43.667  13.473  45.466  1.00  0.00    +0.000 C 
ATOM     53  C39 UNL A   1      42.812  13.364  44.360  1.00  0.00    +0.000 C 
ATOM     54  F2  UNL A   1      42.274  14.463  43.811  1.00  0.00    +0.000 F 
ATOM     55  C40 UNL A   1      42.481  12.119  43.831  1.00  0.00    +0.000 C 
ATOM     56  F3  UNL A   1      41.634  12.035  42.796  1.00  0.00    +0.000 F 
ATOM     57  C41 UNL A   1      43.018  10.963  44.379  1.00  0.00    +0.000 C 
ATOM     58  F4  UNL A   1      42.705   9.767  43.865  1.00  0.00    +0.000 F 
ATOM     59  C42 UNL A   1      43.876  11.049  45.466  1.00  0.00    +0.000 C 
ATOM     60  F5  UNL A   1      44.404   9.935  45.991  1.00  0.00    +0.000 F 
ATOM     61  C43 UNL A   1      44.192  12.292  46.011  1.00  0.00    +0.000 C 
ATOM     62  F6  UNL A   1      45.017  12.342  47.067  1.00  0.00    +0.000 F 
ENDBRANCH   51   52
BRANCH   68   69
ATOM     69  C49 UNL A   1      48.711  18.503  44.350  1.00  0.00    +0.000 C 
ATOM     70  C50 UNL A   1      50.035  18.334  44.780  1.00  0.00    +0.000 C 
ATOM     71  F7  UNL A   1      50.293  17.990  46.051  1.00  0.00    +0.000 F 
ATOM     72  C51 UNL A   1      51.101  18.560  43.914  1.00  0.00    +0.000 C 
ATOM     73  F8  UNL A   1      52.359  18.437  44.357  1.00  0.00    +0.000 F 
ATOM     74  C52 UNL A   1      50.862  18.931  42.599  1.00  0.00    +0.000 C 
ATOM     75  F9  UNL A   1      51.889  19.149  41.767  1.00  0.00    +0.000 F 
ATOM     76  C53 UNL A   1      49.560  19.085  42.148  1.00  0.00    +0.000 C 
ATOM     77  F10 UNL A   1      49.328  19.436  40.876  1.00  0.00    +0.000 F 
ATOM     78  C54 UNL A   1      48.492  18.883  43.018  1.00  0.00    +0.000 C 
ATOM     79  F11 UNL A   1      47.242  19.053  42.561  1.00  0.00    +0.000 F 
ENDBRANCH   68   69
BRANCH   83   84
ATOM     84  C58 UNL A   1      46.089  22.236  49.605  1.00  0.00    +0.000 C 
ATOM     85  C59 UNL A   1      45.483  23.423  49.172  1.00  0.00    +0.000 C 
ATOM     86  F12 UNL A   1      44.605  23.396  48.160  1.00  0.00    +0.000 F 
ATOM     87  C60 UNL A   1      45.798  24.646  49.762  1.00  0.00    +0.000 C 
ATOM     88  F13 UNL A   1      45.229  25.771  49.310  1.00  0.00    +0.000 F 
ATOM     89  C61 UNL A   1      46.706  24.700  50.811  1.00  0.00    +0.000 C 
ATOM     90  F14 UNL A   1      46.999  25.874  51.385  1.00  0.00    +0.000 F 
ATOM     91  C62 UNL A   1      47.310  23.536  51.260  1.00  0.00    +0.000 C 
ATOM     92  F15 UNL A   1      48.175  23.582  52.283  1.00  0.00    +0.000 F 
ATOM     93  C63 UNL A   1      47.015  22.317  50.654  1.00  0.00    +0.000 C 
ATOM     94  F16 UNL A   1      47.616  21.206  51.107  1.00  0.00    +0.000 F 
ENDBRANCH   83   84
TORSDOF 30
ENDMDL
MODEL 4
REMARK VINA RESULT:      -8.2     24.892     33.165
ROOT
ATOM    145  H40 UNL A   1      14.973  46.693   0.733  1.00  0.00    +0.000 H 
ATOM    146  H41 UNL A   1      13.271  46.377   2.684  1.00  0.00    +0.000 H 
ATOM    147  H42 UNL A   1      14.753  50.239   2.863  1.00  0.00    +0.000 H 
ATOM    148  H43 UNL A   1      15.021  55.893   5.796  1.00  0.00    +0.000 H 
ATOM    149  H44 UNL A   1      16.546  56.254   3.797  1.00  0.00    +0.000 H 
ATOM    150  H45 UNL A   1      15.095  52.364   3.598  1.00  0.00    +0.000 H 
ATOM    151  H46 UNL A   1      11.923  51.885   7.460  1.00  0.00    +0.000 H 
ATOM    152  H47 UNL A   1      11.593  49.458   6.712  1.00  0.00    +0.000 H 
ATOM    153  H48 UNL A   1      17.885  50.860  -1.007  1.00  0.00    +0.000 H 
ATOM    154  H49 UNL A   1      18.428  53.205  -0.130  1.00  0.00    +0.000 H 
ATOM     47  C34 UNL A   1      16.912  53.947   2.170  1.00  0.00    +0.000 C 
ATOM     48  C35 UNL A   1      16.900  52.634   1.445  1.00  0.00    +0.000 C 
ATOM     49  N6  UNL A   1      16.209  51.553   1.710  1.00  0.00    +0.000 N 
ATOM     50  C36 UNL A   1      16.544  50.635   0.725  1.00  0.00    +0.000 C 
ATOM     51  C37 UNL A   1      16.107  49.361   0.578  1.00  0.00    +0.000 C 
ATOM     63  C44 UNL A   1      15.183  48.709   1.471  1.00  0.00    +0.000 C 
ATOM     64  C45 UNL A   1      14.707  47.411   1.426  1.00  0.00    +0.000 C 
ATOM     65  C46 UNL A   1      13.803  47.237   2.481  1.00  0.00    +0.000 C 
ATOM     66  C47 UNL A   1      13.745  48.416   3.206  1.00  0.00    +0.000 C 
ATOM     67  N7  UNL A   1      14.593  49.312   2.573  1.00  0.00    +0.000 N 
ATOM     68  C48 UNL A   1      12.973  48.705   4.386  1.00  0.00    +0.000 C 
ATOM     80  C55 UNL A   1      12.983  49.881   5.059  1.00  0.00    +0.000 C 
ATOM     81  N8  UNL A   1      13.696  51.037   4.779  1.00  0.00    +0.000 N 
ATOM     82  C56 UNL A   1      13.350  51.904   5.699  1.00  0.00    +0.000 C 
ATOM     83  C57 UNL A   1      13.815  53.318   5.888  1.00  0.00    +0.000 C 
ATOM     95  C64 UNL A   1      14.693  53.839   5.013  1.00  0.00    +0.000 C 
ATOM     96  C65 UNL A   1      15.234  55.193   5.069  1.00  0.00    +0.000 C 
ATOM     97  C66 UNL A   1      16.052  55.377   4.023  1.00  0.00    +0.000 C 
ATOM     98  C67 UNL A   1      16.132  54.135   3.252  1.00  0.00    +0.000 C 
ATOM     99  N9  UNL A   1      15.276  53.283   3.900  1.00  0.00    +0.000 N 
ATOM    100  C68 UNL A   1      12.366  51.397   6.665  1.00  0.00    +0.000 C 
ATOM    101  C69 UNL A   1      12.202  50.150   6.248  1.00  0.00    +0.000 C 
ATOM    102  C70 UNL A   1      17.485  51.290  -0.159  1.00  0.00    +0.000 C 
ATOM    103  C71 UNL A   1      17.769  52.516   0.265  1.00  0.00    +0.000 C 
ENDROOT
BRANCH   47   46
ATOM    104  C72 UNL A   1      19.053  55.259   2.323  1.00  0.00    +0.000 C 
ATOM    105  C73 UNL A   1      19.879  56.294   1.876  1.00  0.00    +0.000 C 
ATOM     43  C30 UNL A   1      19.464  57.103   0.815  1.00  0.00    +0.000 C 
ATOM     44  C31 UNL A   1      18.245  56.857   0.177  1.00  0.00    +0.000 C 
ATOM     45  C32 UNL A   1      17.392  55.876   0.670  1.00  0.00    +0.000 C 
ATOM     46  C33 UNL A   1      17.795  55.058   1.737  1.00  0.00    +0.000 C 
ATOM    143  H38 UNL A   1      17.978  57.402  -0.657  1.00  0.00    +0.000 H 
ATOM    144  H39 UNL A   1      16.458  55.750   0.250  1.00  0.00    +0.000 H 
ATOM    155  H50 UNL A   1      19.369  54.642   3.088  1.00  0.00    +0.000 H 
ATOM    156  H51 UNL A   1      20.793  56.458   2.328  1.00  0.00    +0.000 H 
BRANCH   43    2
ATOM      1  O1  UNL A   1      21.547  58.037   0.275  1.00  0.00    +0.000 O 
ATOM      2  C1  UNL A   1      20.337  58.211   0.370  1.00  0.00    +0.000 C 
BRANCH    2    3
ATOM    106  H1  UNL A   1      18.800  59.464   0.059  1.00  0.00    +0.000 H 
ATOM      3  N1  UNL A   1      19.783  59.432   0.078  1.00  0.00    +0.000 N 
BRANCH    3    4
ATOM    108  H3  UNL A   1      19.876  61.479   0.199  1.00  0.00    +0.000 H 
ATOM    107  H2  UNL A   1      21.438  60.657   0.237  1.00  0.00    +0.000 H 
ATOM      4  C2  UNL A   1      20.464  60.683  -0.207  1.00  0.00    +0.000 C 
BRANCH    4    5
ATOM    109  H4  UNL A   1      20.548  61.975  -1.882  1.00  0.00    +0.000 H 
ATOM      5  C3  UNL A   1      20.613  60.922  -1.702  1.00  0.00    +0.000 C 
ATOM    110  H5  UNL A   1      19.830  60.371  -2.180  1.00  0.00    +0.000 H 
BRANCH    5    6
ATOM      6  C4  UNL A   1      21.929  60.414  -2.293  1.00  0.00    +0.000 C 
ATOM    111  H6  UNL A   1      22.455  59.885  -1.525  1.00  0.00    +0.000 H 
ATOM    112  H7  UNL A   1      22.451  61.278  -2.647  1.00  0.00    +0.000 H 
BRANCH    6    7
ATOM    113  H8  UNL A   1      22.715  58.976  -3.644  1.00  0.00    +0.000 H 
ATOM    114  H9  UNL A   1      21.497  60.100  -4.322  1.00  0.00    +0.000 H 
ATOM      7  C5  UNL A   1      21.782  59.479  -3.499  1.00  0.00    +0.000 C 
BRANCH    7    8
ATOM    115  H10 UNL A   1      19.732  58.899  -3.451  1.00  0.00    +0.000 H 
ATOM    116  H11 UNL A   1      20.821  57.938  -2.421  1.00  0.00    +0.000 H 
ATOM      8  C6  UNL A   1      20.683  58.414  -3.370  1.00  0.00    +0.000 C 
BRANCH    8    9
ATOM      9  C7  UNL A   1      20.758  57.317  -4.432  1.00  0.00    +0.000 C 
ATOM    117  H12 UNL A   1      20.955  57.764  -5.384  1.00  0.00    +0.000 H 
ATOM    118  H13 UNL A   1      19.824  56.795  -4.453  1.00  0.00    +0.000 H 
BRANCH    9   10
ATOM     10  N2  UNL A   1      21.812  56.375  -4.122  1.00  0.00    +0.000 N 
ATOM    119  H14 UNL A   1      21.730  55.900  -3.264  1.00  0.00    +0.000 H 
BRANCH   10   11
ATOM     11  C8  UNL A   1      22.906  56.068  -4.876  1.00  0.00    +0.000 C 
ATOM     12  O2  UNL A   1      22.737  55.386  -5.888  1.00  0.00    +0.000 O 
BRANCH   11   13
ATOM     13  C9  UNL A   1      24.306  56.553  -4.473  1.00  0.00    +0.000 C 
ATOM    120  H15 UNL A   1      25.016  55.911  -4.951  1.00  0.00    +0.000 H 
BRANCH   13   14
ATOM    121  H16 UNL A   1      25.519  55.995  -2.796  1.00  0.00    +0.000 H 
ATOM    122  H17 UNL A   1      23.800  55.756  -2.553  1.00  0.00    +0.000 H 
ATOM     14  C10 UNL A   1      24.545  56.406  -2.962  1.00  0.00    +0.000 C 
BRANCH   14   15
ATOM    123  H18 UNL A   1      24.713  58.377  -2.947  1.00  0.00    +0.000 H 
ATOM     15  O3  UNL A   1      24.455  57.683  -2.321  1.00  0.00    +0.000 O 
ENDBRANCH   14   15
ENDBRANCH   13   14
BRANCH   13   16
ATOM    124  H19 UNL A   1      24.551  58.606  -4.290  1.00  0.00    +0.000 H 
ATOM     16  N3  UNL A   1      24.588  57.898  -4.974  1.00  0.00    +0.000 N 
BRANCH   16   17
ATOM     17  C11 UNL A   1      24.892  58.337  -6.226  1.00  0.00    +0.000 C 
ATOM     18  O4  UNL A   1      23.979  58.969  -6.775  1.00  0.00    +0.000 O 
BRANCH   17   19
ATOM     19  C12 UNL A   1      26.324  58.322  -6.833  1.00  0.00    +0.000 C 
ATOM    125  H20 UNL A   1      26.217  58.820  -7.774  1.00  0.00    +0.000 H 
BRANCH   19   20
ATOM     20  C13 UNL A   1      26.794  56.855  -7.001  1.00  0.00    +0.000 C 
ATOM    126  H21 UNL A   1      26.853  56.407  -6.031  1.00  0.00    +0.000 H 
ATOM    127  H22 UNL A   1      27.743  56.889  -7.496  1.00  0.00    +0.000 H 
BRANCH   20   21
ATOM     21  S1  UNL A   1      25.690  55.834  -8.041  1.00  0.00    +0.000 S 
ATOM    128  H23 UNL A   1      26.407  55.283  -9.058  1.00  0.00    +0.000 H 
ENDBRANCH   20   21
ENDBRANCH   19   20
BRANCH   19   22
ATOM    129  H24 UNL A   1      28.187  58.616  -6.015  1.00  0.00    +0.000 H 
ATOM     22  N4  UNL A   1      27.355  59.121  -6.161  1.00  0.00    +0.000 N 
BRANCH   22   23
ATOM     23  C14 UNL A   1      27.431  60.394  -5.691  1.00  0.00    +0.000 C 
ATOM     24  O5  UNL A   1      27.468  61.222  -6.604  1.00  0.00    +0.000 O 
BRANCH   23   25
ATOM     25  C15 UNL A   1      27.317  60.831  -4.201  1.00  0.00    +0.000 C 
ATOM    130  H25 UNL A   1      27.691  60.010  -3.626  1.00  0.00    +0.000 H 
BRANCH   25   26
ATOM     26  C16 UNL A   1      25.845  61.134  -3.778  1.00  0.00    +0.000 C 
ATOM    131  H26 UNL A   1      25.276  60.273  -4.059  1.00  0.00    +0.000 H 
ATOM    132  H27 UNL A   1      25.675  62.072  -4.263  1.00  0.00    +0.000 H 
BRANCH   26   27
ATOM    133  H28 UNL A   1      24.598  63.357  -2.691  1.00  0.00    +0.000 H 
ATOM    134  H29 UNL A   1      24.279  63.927  -0.365  1.00  0.00    +0.000 H 
ATOM    135  H30 UNL A   1      24.957  62.382   1.374  1.00  0.00    +0.000 H 
ATOM    136  H31 UNL A   1      25.913  60.238   0.765  1.00  0.00    +0.000 H 
ATOM    137  H32 UNL A   1      26.218  59.656  -1.564  1.00  0.00    +0.000 H 
ATOM     27  C17 UNL A   1      25.438  61.457  -2.348  1.00  0.00    +0.000 C 
ATOM     28  C18 UNL A   1      24.882  62.683  -1.962  1.00  0.00    +0.000 C 
ATOM     29  C19 UNL A   1      24.699  63.017  -0.617  1.00  0.00    +0.000 C 
ATOM     30  C20 UNL A   1      25.081  62.133   0.381  1.00  0.00    +0.000 C 
ATOM     31  C21 UNL A   1      25.633  60.905   0.030  1.00  0.00    +0.000 C 
ATOM     32  C22 UNL A   1      25.809  60.571  -1.319  1.00  0.00    +0.000 C 
ENDBRANCH   26   27
ENDBRANCH   25   26
BRANCH   25   33
ATOM     33  N5  UNL A   1      28.094  62.059  -3.963  1.00  0.00    +0.000 N 
ATOM    138  H33 UNL A   1      27.823  62.813  -4.534  1.00  0.00    +0.000 H 
BRANCH   33   34
ATOM     34  C23 UNL A   1      29.119  62.363  -3.106  1.00  0.00    +0.000 C 
ATOM     35  O6  UNL A   1      30.263  62.131  -3.493  1.00  0.00    +0.000 O 
BRANCH   34   36
ATOM     36  C24 UNL A   1      28.923  62.881  -1.724  1.00  0.00    +0.000 C 
ATOM     37  C25 UNL A   1      29.301  62.036  -0.666  1.00  0.00    +0.000 C 
ATOM     38  C26 UNL A   1      29.038  62.390   0.661  1.00  0.00    +0.000 C 
ATOM     39  C27 UNL A   1      28.391  63.587   0.932  1.00  0.00    +0.000 C 
ATOM     40  F1  UNL A   1      28.119  63.921   2.199  1.00  0.00    +0.000 F 
ATOM     41  C28 UNL A   1      28.000  64.433  -0.098  1.00  0.00    +0.000 C 
ATOM     42  C29 UNL A   1      28.260  64.077  -1.427  1.00  0.00    +0.000 C 
ATOM    139  H34 UNL A   1      29.778  61.145  -0.870  1.00  0.00    +0.000 H 
ATOM    140  H35 UNL A   1      29.323  61.766   1.432  1.00  0.00    +0.000 H 
ATOM    141  H36 UNL A   1      27.520  65.321   0.115  1.00  0.00    +0.000 H 
ATOM    142  H37 UNL A   1      27.960  64.701  -2.192  1.00  0.00    +0.000 H 
ENDBRANCH   34   36
ENDBRANCH   33   34
ENDBRANCH   25   33
ENDBRANCH   23   25
ENDBRANCH   22   23
ENDBRANCH   19   22
ENDBRANCH   17   19
ENDBRANCH   16   17
ENDBRANCH   13   16
ENDBRANCH   11   13
ENDBRANCH   10   11
ENDBRANCH    9   10
ENDBRANCH    8    9
ENDBRANCH    7    8
ENDBRANCH    6    7
ENDBRANCH    5    6
ENDBRANCH    4    5
ENDBRANCH    3    4
ENDBRANCH    2    3
ENDBRANCH   43    2
ENDBRANCH   47   46
BRANCH   51   52
ATOM     52  C38 UNL A   1      16.611  48.585  -0.603  1.00  0.00    +0.000 C 
ATOM     53  C39 UNL A   1      17.882  47.992  -0.604  1.00  0.00    +0.000 C 
ATOM     54  F2  UNL A   1      18.706  48.158   0.442  1.00  0.00    +0.000 F 
ATOM     55  C40 UNL A   1      18.324  47.248  -1.695  1.00  0.00    +0.000 C 
ATOM     56  F3  UNL A   1      19.556  46.720  -1.690  1.00  0.00    +0.000 F 
ATOM     57  C41 UNL A   1      17.497  47.061  -2.793  1.00  0.00    +0.000 C 
ATOM     58  F4  UNL A   1      17.921  46.339  -3.839  1.00  0.00    +0.000 F 
ATOM     59  C42 UNL A   1      16.231  47.628  -2.808  1.00  0.00    +0.000 C 
ATOM     60  F5  UNL A   1      15.427  47.441  -3.863  1.00  0.00    +0.000 F 
ATOM     61  C43 UNL A   1      15.794  48.391  -1.727  1.00  0.00    +0.000 C 
ATOM     62  F6  UNL A   1      14.569  48.934  -1.775  1.00  0.00    +0.000 F 
ENDBRANCH   51   52
BRANCH   68   69
ATOM     69  C49 UNL A   1      12.097  47.620   4.936  1.00  0.00    +0.000 C 
ATOM     70  C50 UNL A   1      10.767  47.475   4.517  1.00  0.00    +0.000 C 
ATOM     71  F7  UNL A   1      10.239  48.336   3.634  1.00  0.00    +0.000 F 
ATOM     72  C51 UNL A   1       9.961  46.466   5.039  1.00  0.00    +0.000 C 
ATOM     73  F8  UNL A   1       8.679  46.372   4.659  1.00  0.00    +0.000 F 
ATOM     74  C52 UNL A   1      10.478  45.572   5.964  1.00  0.00    +0.000 C 
ATOM     75  F9  UNL A   1       9.701  44.602   6.465  1.00  0.00    +0.000 F 
ATOM     76  C53 UNL A   1      11.796  45.687   6.377  1.00  0.00    +0.000 C 
ATOM     77  F10 UNL A   1      12.299  44.819   7.266  1.00  0.00    +0.000 F 
ATOM     78  C54 UNL A   1      12.598  46.708   5.875  1.00  0.00    +0.000 C 
ATOM     79  F11 UNL A   1      13.866  46.807   6.303  1.00  0.00    +0.000 F 
ENDBRANCH   68   69
BRANCH   83   84
ATOM     84  C58 UNL A   1      13.333  54.144   7.022  1.00  0.00    +0.000 C 
ATOM     85  C59 UNL A   1      13.986  54.113   8.262  1.00  0.00    +0.000 C 
ATOM     86  F12 UNL A   1      15.031  53.295   8.448  1.00  0.00    +0.000 F 
ATOM     87  C60 UNL A   1      13.548  54.904   9.322  1.00  0.00    +0.000 C 
ATOM     88  F13 UNL A   1      14.170  54.835  10.506  1.00  0.00    +0.000 F 
ATOM     89  C61 UNL A   1      12.467  55.758   9.154  1.00  0.00    +0.000 C 
ATOM     90  F14 UNL A   1      12.056  56.528  10.170  1.00  0.00    +0.000 F 
ATOM     91  C62 UNL A   1      11.813  55.810   7.933  1.00  0.00    +0.000 C 
ATOM     92  F15 UNL A   1      10.778  56.645   7.762  1.00  0.00    +0.000 F 
ATOM     93  C63 UNL A   1      12.233  55.000   6.881  1.00  0.00    +0.000 C 
ATOM     94  F16 UNL A   1      11.580  55.068   5.711  1.00  0.00    +0.000 F 
ENDBRANCH   83   84
TORSDOF 30
ENDMDL
MODEL 5
REMARK VINA RESULT:      -8.1     25.083     30.902
ROOT
ATOM    145  H40 UNL A   1      13.586  46.722   2.593  1.00  0.00    +0.000 H 
ATOM    146  H41 UNL A   1      15.268  46.942   0.612  1.00  0.00    +0.000 H 
ATOM    147  H42 UNL A   1      14.989  50.619   2.496  1.00  0.00    +0.000 H 
ATOM    148  H43 UNL A   1      16.600  56.780   2.794  1.00  0.00    +0.000 H 
ATOM    149  H44 UNL A   1      15.096  56.522   4.823  1.00  0.00    +0.000 H 
ATOM    150  H45 UNL A   1      15.336  52.821   2.946  1.00  0.00    +0.000 H 
ATOM    151  H46 UNL A   1      18.521  53.434  -0.887  1.00  0.00    +0.000 H 
ATOM    152  H47 UNL A   1      18.074  50.982  -1.474  1.00  0.00    +0.000 H 
ATOM    153  H48 UNL A   1      11.883  50.107   6.404  1.00  0.00    +0.000 H 
ATOM    154  H49 UNL A   1      12.113  52.618   6.855  1.00  0.00    +0.000 H 
ATOM     47  C34 UNL A   1      13.951  53.931   5.113  1.00  0.00    +0.000 C 
ATOM     48  C35 UNL A   1      13.526  52.492   5.086  1.00  0.00    +0.000 C 
ATOM     49  N6  UNL A   1      13.892  51.541   4.264  1.00  0.00    +0.000 N 
ATOM     50  C36 UNL A   1      13.230  50.397   4.686  1.00  0.00    +0.000 C 
ATOM     51  C37 UNL A   1      13.266  49.155   4.145  1.00  0.00    +0.000 C 
ATOM     63  C44 UNL A   1      14.027  48.799   2.974  1.00  0.00    +0.000 C 
ATOM     64  C45 UNL A   1      14.101  47.577   2.329  1.00  0.00    +0.000 C 
ATOM     65  C46 UNL A   1      14.994  47.698   1.258  1.00  0.00    +0.000 C 
ATOM     66  C47 UNL A   1      15.448  49.006   1.213  1.00  0.00    +0.000 C 
ATOM     67  N7  UNL A   1      14.850  49.670   2.273  1.00  0.00    +0.000 N 
ATOM     68  C48 UNL A   1      16.359  49.607   0.274  1.00  0.00    +0.000 C 
ATOM     80  C55 UNL A   1      16.742  50.907   0.278  1.00  0.00    +0.000 C 
ATOM     81  N8  UNL A   1      16.377  51.919   1.152  1.00  0.00    +0.000 N 
ATOM     82  C56 UNL A   1      17.029  52.986   0.759  1.00  0.00    +0.000 C 
ATOM     83  C57 UNL A   1      17.010  54.371   1.337  1.00  0.00    +0.000 C 
ATOM     95  C64 UNL A   1      16.256  54.615   2.423  1.00  0.00    +0.000 C 
ATOM     96  C65 UNL A   1      16.137  55.907   3.091  1.00  0.00    +0.000 C 
ATOM     97  C66 UNL A   1      15.330  55.774   4.153  1.00  0.00    +0.000 C 
ATOM     98  C67 UNL A   1      14.834  54.397   4.208  1.00  0.00    +0.000 C 
ATOM     99  N9  UNL A   1      15.453  53.776   3.156  1.00  0.00    +0.000 N 
ATOM    100  C68 UNL A   1      17.895  52.768  -0.407  1.00  0.00    +0.000 C 
ATOM    101  C69 UNL A   1      17.658  51.493  -0.679  1.00  0.00    +0.000 C 
ATOM    102  C70 UNL A   1      12.454  50.765   5.851  1.00  0.00    +0.000 C 
ATOM    103  C71 UNL A   1      12.572  52.060   6.117  1.00  0.00    +0.000 C 
ENDROOT
BRANCH   47   46
ATOM    104  C72 UNL A   1      12.192  55.557   5.880  1.00  0.00    +0.000 C 
ATOM    105  C73 UNL A   1      11.676  56.421   6.849  1.00  0.00    +0.000 C 
ATOM     43  C30 UNL A   1      12.345  56.578   8.066  1.00  0.00    +0.000 C 
ATOM     44  C31 UNL A   1      13.506  55.846   8.331  1.00  0.00    +0.000 C 
ATOM     45  C32 UNL A   1      14.059  55.044   7.338  1.00  0.00    +0.000 C 
ATOM     46  C33 UNL A   1      13.398  54.879   6.111  1.00  0.00    +0.000 C 
ATOM    143  H38 UNL A   1      13.953  55.901   9.259  1.00  0.00    +0.000 H 
ATOM    144  H39 UNL A   1      14.959  54.567   7.505  1.00  0.00    +0.000 H 
ATOM    155  H50 UNL A   1      11.685  55.418   4.993  1.00  0.00    +0.000 H 
ATOM    156  H51 UNL A   1      10.803  56.941   6.667  1.00  0.00    +0.000 H 
BRANCH   43    2
ATOM      1  O1  UNL A   1      11.352  57.089  10.130  1.00  0.00    +0.000 O 
ATOM      2  C1  UNL A   1      11.802  57.517   9.072  1.00  0.00    +0.000 C 
BRANCH    2    3
ATOM    106  H1  UNL A   1      10.970  59.215   8.399  1.00  0.00    +0.000 H 
ATOM      3  N1  UNL A   1      11.794  58.862   8.806  1.00  0.00    +0.000 N 
BRANCH    3    4
ATOM    108  H3  UNL A   1      12.407  60.808   9.041  1.00  0.00    +0.000 H 
ATOM    107  H2  UNL A   1      13.305  59.621   9.991  1.00  0.00    +0.000 H 
ATOM      4  C2  UNL A   1      12.848  59.833   9.047  1.00  0.00    +0.000 C 
BRANCH    4    5
ATOM    109  H4  UNL A   1      14.606  59.010   8.202  1.00  0.00    +0.000 H 
ATOM      5  C3  UNL A   1      13.916  59.793   7.964  1.00  0.00    +0.000 C 
ATOM    110  H5  UNL A   1      14.374  60.759   7.949  1.00  0.00    +0.000 H 
BRANCH    5    6
ATOM      6  C4  UNL A   1      13.376  59.542   6.555  1.00  0.00    +0.000 C 
ATOM    111  H6  UNL A   1      12.312  59.661   6.582  1.00  0.00    +0.000 H 
ATOM    112  H7  UNL A   1      13.686  58.555   6.287  1.00  0.00    +0.000 H 
BRANCH    6    7
ATOM    113  H8  UNL A   1      14.258  59.870   4.651  1.00  0.00    +0.000 H 
ATOM    114  H9  UNL A   1      14.719  61.031   5.935  1.00  0.00    +0.000 H 
ATOM      7  C5  UNL A   1      13.931  60.474   5.472  1.00  0.00    +0.000 C 
BRANCH    7    8
ATOM    115  H10 UNL A   1      13.364  62.486   5.061  1.00  0.00    +0.000 H 
ATOM    116  H11 UNL A   1      12.027  61.387   5.478  1.00  0.00    +0.000 H 
ATOM      8  C6  UNL A   1      12.938  61.513   4.931  1.00  0.00    +0.000 C 
BRANCH    8    9
ATOM      9  C7  UNL A   1      12.597  61.330   3.452  1.00  0.00    +0.000 C 
ATOM    117  H12 UNL A   1      11.627  60.887   3.367  1.00  0.00    +0.000 H 
ATOM    118  H13 UNL A   1      13.335  60.698   3.005  1.00  0.00    +0.000 H 
BRANCH    9   10
ATOM     10  N2  UNL A   1      12.597  62.605   2.765  1.00  0.00    +0.000 N 
ATOM    119  H14 UNL A   1      11.931  63.261   3.070  1.00  0.00    +0.000 H 
BRANCH   10   11
ATOM     11  C8  UNL A   1      13.410  63.004   1.746  1.00  0.00    +0.000 C 
ATOM     12  O2  UNL A   1      13.082  64.001   1.101  1.00  0.00    +0.000 O 
BRANCH   11   13
ATOM     13  C9  UNL A   1      14.694  62.232   1.410  1.00  0.00    +0.000 C 
ATOM    120  H15 UNL A   1      14.887  61.562   2.222  1.00  0.00    +0.000 H 
BRANCH   13   14
ATOM    121  H16 UNL A   1      15.650  64.041   0.771  1.00  0.00    +0.000 H 
ATOM    122  H17 UNL A   1      16.714  62.649   0.839  1.00  0.00    +0.000 H 
ATOM     14  C10 UNL A   1      15.912  63.165   1.327  1.00  0.00    +0.000 C 
BRANCH   14   15
ATOM    123  H18 UNL A   1      17.186  64.005   2.586  1.00  0.00    +0.000 H 
ATOM     15  O3  UNL A   1      16.333  63.547   2.640  1.00  0.00    +0.000 O 
ENDBRANCH   14   15
ENDBRANCH   13   14
BRANCH   13   16
ATOM    124  H19 UNL A   1      14.266  61.868  -0.588  1.00  0.00    +0.000 H 
ATOM     16  N3  UNL A   1      14.534  61.386   0.227  1.00  0.00    +0.000 N 
BRANCH   16   17
ATOM     17  C11 UNL A   1      14.692  60.044   0.063  1.00  0.00    +0.000 C 
ATOM     18  O4  UNL A   1      15.867  59.661   0.138  1.00  0.00    +0.000 O 
BRANCH   17   19
ATOM     19  C12 UNL A   1      13.521  59.019   0.069  1.00  0.00    +0.000 C 
ATOM    125  H20 UNL A   1      13.669  58.446  -0.823  1.00  0.00    +0.000 H 
BRANCH   19   20
ATOM     20  C13 UNL A   1      12.172  59.782   0.055  1.00  0.00    +0.000 C 
ATOM    126  H21 UNL A   1      12.378  60.829  -0.025  1.00  0.00    +0.000 H 
ATOM    127  H22 UNL A   1      11.665  59.531   0.963  1.00  0.00    +0.000 H 
BRANCH   20   21
ATOM     21  S1  UNL A   1      11.063  59.306  -1.319  1.00  0.00    +0.000 S 
ATOM    128  H23 UNL A   1      10.285  60.369  -1.663  1.00  0.00    +0.000 H 
ENDBRANCH   20   21
ENDBRANCH   19   20
BRANCH   19   22
ATOM    129  H24 UNL A   1      14.419  57.847   1.499  1.00  0.00    +0.000 H 
ATOM     22  N4  UNL A   1      13.523  57.992   1.116  1.00  0.00    +0.000 N 
BRANCH   22   23
ATOM     23  C14 UNL A   1      12.582  57.192   1.681  1.00  0.00    +0.000 C 
ATOM     24  O5  UNL A   1      12.152  57.659   2.739  1.00  0.00    +0.000 O 
BRANCH   23   25
ATOM     25  C15 UNL A   1      11.955  55.918   1.040  1.00  0.00    +0.000 C 
ATOM    130  H25 UNL A   1      10.916  55.944   1.294  1.00  0.00    +0.000 H 
BRANCH   25   26
ATOM     26  C16 UNL A   1      12.591  54.601   1.585  1.00  0.00    +0.000 C 
ATOM    131  H26 UNL A   1      13.214  54.893   2.405  1.00  0.00    +0.000 H 
ATOM    132  H27 UNL A   1      13.027  54.194   0.697  1.00  0.00    +0.000 H 
BRANCH   26   27
ATOM    133  H28 UNL A   1      12.460  51.971   0.725  1.00  0.00    +0.000 H 
ATOM    134  H29 UNL A   1      10.894  50.246   1.363  1.00  0.00    +0.000 H 
ATOM    135  H30 UNL A   1       9.241  50.673   3.083  1.00  0.00    +0.000 H 
ATOM    136  H31 UNL A   1       9.202  52.828   4.196  1.00  0.00    +0.000 H 
ATOM    137  H32 UNL A   1      10.781  54.552   3.572  1.00  0.00    +0.000 H 
ATOM     27  C17 UNL A   1      11.769  53.422   2.084  1.00  0.00    +0.000 C 
ATOM     28  C18 UNL A   1      11.770  52.165   1.467  1.00  0.00    +0.000 C 
ATOM     29  C19 UNL A   1      10.862  51.166   1.832  1.00  0.00    +0.000 C 
ATOM     30  C20 UNL A   1       9.919  51.406   2.820  1.00  0.00    +0.000 C 
ATOM     31  C21 UNL A   1       9.895  52.643   3.455  1.00  0.00    +0.000 C 
ATOM     32  C22 UNL A   1      10.810  53.640   3.091  1.00  0.00    +0.000 C 
ENDBRANCH   26   27
ENDBRANCH   25   26
BRANCH   25   33
ATOM     33  N5  UNL A   1      12.157  55.922  -0.419  1.00  0.00    +0.000 N 
ATOM    138  H33 UNL A   1      12.616  56.727  -0.750  1.00  0.00    +0.000 H 
BRANCH   33   34
ATOM     34  C23 UNL A   1      11.834  55.031  -1.407  1.00  0.00    +0.000 C 
ATOM     35  O6  UNL A   1      10.640  54.894  -1.673  1.00  0.00    +0.000 O 
BRANCH   34   36
ATOM     36  C24 UNL A   1      12.826  54.177  -2.116  1.00  0.00    +0.000 C 
ATOM     37  C25 UNL A   1      12.658  54.019  -3.503  1.00  0.00    +0.000 C 
ATOM     38  C26 UNL A   1      13.467  53.138  -4.226  1.00  0.00    +0.000 C 
ATOM     39  C27 UNL A   1      14.442  52.406  -3.562  1.00  0.00    +0.000 C 
ATOM     40  F1  UNL A   1      15.206  51.546  -4.246  1.00  0.00    +0.000 F 
ATOM     41  C28 UNL A   1      14.619  52.539  -2.190  1.00  0.00    +0.000 C 
ATOM     42  C29 UNL A   1      13.807  53.418  -1.466  1.00  0.00    +0.000 C 
ATOM    139  H34 UNL A   1      11.930  54.561  -3.994  1.00  0.00    +0.000 H 
ATOM    140  H35 UNL A   1      13.341  53.031  -5.245  1.00  0.00    +0.000 H 
ATOM    141  H36 UNL A   1      15.347  51.990  -1.708  1.00  0.00    +0.000 H 
ATOM    142  H37 UNL A   1      13.932  53.508  -0.446  1.00  0.00    +0.000 H 
ENDBRANCH   34   36
ENDBRANCH   33   34
ENDBRANCH   25   33
ENDBRANCH   23   25
ENDBRANCH   22   23
ENDBRANCH   19   22
ENDBRANCH   17   19
ENDBRANCH   16   17
ENDBRANCH   13   16
ENDBRANCH   11   13
ENDBRANCH   10   11
ENDBRANCH    9   10
ENDBRANCH    8    9
ENDBRANCH    7    8
ENDBRANCH    6    7
ENDBRANCH    5    6
ENDBRANCH    4    5
ENDBRANCH    3    4
ENDBRANCH    2    3
ENDBRANCH   43    2
ENDBRANCH   47   46
BRANCH   51   52
ATOM     52  C38 UNL A   1      12.469  48.079   4.821  1.00  0.00    +0.000 C 
ATOM     53  C39 UNL A   1      11.229  47.659   4.319  1.00  0.00    +0.000 C 
ATOM     54  F2  UNL A   1      10.696  48.259   3.244  1.00  0.00    +0.000 F 
ATOM     55  C40 UNL A   1      10.515  46.637   4.940  1.00  0.00    +0.000 C 
ATOM     56  F3  UNL A   1       9.314  46.275   4.464  1.00  0.00    +0.000 F 
ATOM     57  C41 UNL A   1      11.037  45.998   6.055  1.00  0.00    +0.000 C 
ATOM     58  F4  UNL A   1      10.352  45.010   6.646  1.00  0.00    +0.000 F 
ATOM     59  C42 UNL A   1      12.268  46.389   6.560  1.00  0.00    +0.000 C 
ATOM     60  F5  UNL A   1      12.779  45.768   7.632  1.00  0.00    +0.000 F 
ATOM     61  C43 UNL A   1      12.974  47.426   5.955  1.00  0.00    +0.000 C 
ATOM     62  F6  UNL A   1      14.158  47.787   6.472  1.00  0.00    +0.000 F 
ENDBRANCH   51   52
BRANCH   68   69
ATOM     69  C49 UNL A   1      16.922  48.741  -0.811  1.00  0.00    +0.000 C 
ATOM     70  C50 UNL A   1      18.119  48.032  -0.631  1.00  0.00    +0.000 C 
ATOM     71  F7  UNL A   1      18.807  48.149   0.515  1.00  0.00    +0.000 F 
ATOM     72  C51 UNL A   1      18.636  47.234  -1.649  1.00  0.00    +0.000 C 
ATOM     73  F8  UNL A   1      19.804  46.602  -1.473  1.00  0.00    +0.000 F 
ATOM     74  C52 UNL A   1      17.952  47.109  -2.848  1.00  0.00    +0.000 C 
ATOM     75  F9  UNL A   1      18.451  46.340  -3.827  1.00  0.00    +0.000 F 
ATOM     76  C53 UNL A   1      16.757  47.785  -3.039  1.00  0.00    +0.000 C 
ATOM     77  F10 UNL A   1      16.092  47.658  -4.196  1.00  0.00    +0.000 F 
ATOM     78  C54 UNL A   1      16.250  48.602  -2.033  1.00  0.00    +0.000 C 
ATOM     79  F11 UNL A   1      15.099  49.259  -2.249  1.00  0.00    +0.000 F 
ENDBRANCH   68   69
BRANCH   83   84
ATOM     84  C58 UNL A   1      17.797  55.471   0.728  1.00  0.00    +0.000 C 
ATOM     85  C59 UNL A   1      19.062  55.811   1.226  1.00  0.00    +0.000 C 
ATOM     86  F12 UNL A   1      19.555  55.171   2.295  1.00  0.00    +0.000 F 
ATOM     87  C60 UNL A   1      19.812  56.829   0.642  1.00  0.00    +0.000 C 
ATOM     88  F13 UNL A   1      21.006  57.157   1.155  1.00  0.00    +0.000 F 
ATOM     89  C61 UNL A   1      19.322  57.508  -0.465  1.00  0.00    +0.000 C 
ATOM     90  F14 UNL A   1      20.050  58.479  -1.033  1.00  0.00    +0.000 F 
ATOM     91  C62 UNL A   1      18.077  57.182  -0.979  1.00  0.00    +0.000 C 
ATOM     92  F15 UNL A   1      17.607  57.825  -2.057  1.00  0.00    +0.000 F 
ATOM     93  C63 UNL A   1      17.315  56.182  -0.380  1.00  0.00    +0.000 C 
ATOM     94  F16 UNL A   1      16.112  55.888  -0.896  1.00  0.00    +0.000 F 
ENDBRANCH   83   84
TORSDOF 30
ENDMDL
MODEL 6
REMARK VINA RESULT:      -8.1      8.536     12.565
ROOT
ATOM    145  H40 UNL A   1      24.679  12.810   8.215  1.00  0.00    +0.000 H 
ATOM    146  H41 UNL A   1      25.809  15.102   8.738  1.00  0.00    +0.000 H 
ATOM    147  H42 UNL A   1      22.764  15.745   6.005  1.00  0.00    +0.000 H 
ATOM    148  H43 UNL A   1      19.526  19.720   2.217  1.00  0.00    +0.000 H 
ATOM    149  H44 UNL A   1      18.317  17.519   1.840  1.00  0.00    +0.000 H 
ATOM    150  H45 UNL A   1      21.377  16.834   4.569  1.00  0.00    +0.000 H 
ATOM    151  H46 UNL A   1      23.507  21.305   5.391  1.00  0.00    +0.000 H 
ATOM    152  H47 UNL A   1      25.144  20.089   6.940  1.00  0.00    +0.000 H 
ATOM    153  H48 UNL A   1      20.506  11.344   5.164  1.00  0.00    +0.000 H 
ATOM    154  H49 UNL A   1      19.026  12.491   3.417  1.00  0.00    +0.000 H 
ATOM     47  C34 UNL A   1      19.458  15.304   3.219  1.00  0.00    +0.000 C 
ATOM     48  C35 UNL A   1      20.192  14.319   4.080  1.00  0.00    +0.000 C 
ATOM     49  N6  UNL A   1      21.183  14.530   4.910  1.00  0.00    +0.000 N 
ATOM     50  C36 UNL A   1      21.477  13.296   5.473  1.00  0.00    +0.000 C 
ATOM     51  C37 UNL A   1      22.441  12.990   6.376  1.00  0.00    +0.000 C 
ATOM     63  C44 UNL A   1      23.374  13.942   6.923  1.00  0.00    +0.000 C 
ATOM     64  C45 UNL A   1      24.408  13.723   7.816  1.00  0.00    +0.000 C 
ATOM     65  C46 UNL A   1      25.022  14.951   8.087  1.00  0.00    +0.000 C 
ATOM     66  C47 UNL A   1      24.396  15.930   7.333  1.00  0.00    +0.000 C 
ATOM     67  N7  UNL A   1      23.384  15.298   6.626  1.00  0.00    +0.000 N 
ATOM     68  C48 UNL A   1      24.696  17.336   7.261  1.00  0.00    +0.000 C 
ATOM     80  C55 UNL A   1      24.050  18.235   6.479  1.00  0.00    +0.000 C 
ATOM     81  N8  UNL A   1      22.990  18.029   5.610  1.00  0.00    +0.000 N 
ATOM     82  C56 UNL A   1      22.704  19.205   5.108  1.00  0.00    +0.000 C 
ATOM     83  C57 UNL A   1      21.647  19.574   4.109  1.00  0.00    +0.000 C 
ATOM     95  C64 UNL A   1      20.829  18.615   3.639  1.00  0.00    +0.000 C 
ATOM     96  C65 UNL A   1      19.761  18.822   2.667  1.00  0.00    +0.000 C 
ATOM     97  C66 UNL A   1      19.133  17.657   2.457  1.00  0.00    +0.000 C 
ATOM     98  C67 UNL A   1      19.791  16.609   3.240  1.00  0.00    +0.000 C 
ATOM     99  N9  UNL A   1      20.773  17.273   3.929  1.00  0.00    +0.000 N 
ATOM    100  C68 UNL A   1      23.547  20.297   5.610  1.00  0.00    +0.000 C 
ATOM    101  C69 UNL A   1      24.371  19.646   6.419  1.00  0.00    +0.000 C 
ATOM    102  C70 UNL A   1      20.547  12.342   4.906  1.00  0.00    +0.000 C 
ATOM    103  C71 UNL A   1      19.756  12.917   4.009  1.00  0.00    +0.000 C 
ENDROOT
BRANCH   47   46
ATOM    104  C72 UNL A   1      17.024  14.943   2.693  1.00  0.00    +0.000 C 
ATOM    105  C73 UNL A   1      16.017  14.557   1.805  1.00  0.00    +0.000 C 
ATOM     43  C30 UNL A   1      16.354  14.136   0.515  1.00  0.00    +0.000 C 
ATOM     44  C31 UNL A   1      17.689  14.135   0.100  1.00  0.00    +0.000 C 
ATOM     45  C32 UNL A   1      18.695  14.447   1.008  1.00  0.00    +0.000 C 
ATOM     46  C33 UNL A   1      18.371  14.870   2.307  1.00  0.00    +0.000 C 
ATOM    143  H38 UNL A   1      17.927  13.902  -0.876  1.00  0.00    +0.000 H 
ATOM    144  H39 UNL A   1      19.684  14.368   0.725  1.00  0.00    +0.000 H 
ATOM    155  H50 UNL A   1      16.777  15.281   3.636  1.00  0.00    +0.000 H 
ATOM    156  H51 UNL A   1      15.028  14.585   2.100  1.00  0.00    +0.000 H 
BRANCH   43    2
ATOM      1  O1  UNL A   1      15.238  14.147  -1.549  1.00  0.00    +0.000 O 
ATOM      2  C1  UNL A   1      15.279  13.705  -0.406  1.00  0.00    +0.000 C 
BRANCH    2    3
ATOM    106  H1  UNL A   1      13.391  13.092  -0.106  1.00  0.00    +0.000 H 
ATOM      3  N1  UNL A   1      14.327  12.820   0.034  1.00  0.00    +0.000 N 
BRANCH    3    4
ATOM    108  H3  UNL A   1      14.547  10.782  -0.080  1.00  0.00    +0.000 H 
ATOM    107  H2  UNL A   1      15.444  11.559   1.227  1.00  0.00    +0.000 H 
ATOM      4  C2  UNL A   1      14.524  11.534   0.680  1.00  0.00    +0.000 C 
BRANCH    4    5
ATOM    109  H4  UNL A   1      13.578  10.233   2.056  1.00  0.00    +0.000 H 
ATOM      5  C3  UNL A   1      13.391  11.200   1.639  1.00  0.00    +0.000 C 
ATOM    110  H5  UNL A   1      12.486  11.238   1.070  1.00  0.00    +0.000 H 
BRANCH    5    6
ATOM      6  C4  UNL A   1      13.226  12.194   2.790  1.00  0.00    +0.000 C 
ATOM    111  H6  UNL A   1      12.347  11.924   3.338  1.00  0.00    +0.000 H 
ATOM    112  H7  UNL A   1      13.166  13.163   2.342  1.00  0.00    +0.000 H 
BRANCH    6    7
ATOM    113  H8  UNL A   1      14.325  13.159   4.330  1.00  0.00    +0.000 H 
ATOM    114  H9  UNL A   1      15.288  12.182   3.179  1.00  0.00    +0.000 H 
ATOM      7  C5  UNL A   1      14.401  12.249   3.773  1.00  0.00    +0.000 C 
BRANCH    7    8
ATOM    115  H10 UNL A   1      15.328  10.489   4.537  1.00  0.00    +0.000 H 
ATOM    116  H11 UNL A   1      13.555  10.540   4.682  1.00  0.00    +0.000 H 
ATOM      8  C6  UNL A   1      14.471  11.085   4.774  1.00  0.00    +0.000 C 
BRANCH    8    9
ATOM      9  C7  UNL A   1      14.580  11.530   6.232  1.00  0.00    +0.000 C 
ATOM    117  H12 UNL A   1      15.609  11.698   6.472  1.00  0.00    +0.000 H 
ATOM    118  H13 UNL A   1      14.173  10.762   6.857  1.00  0.00    +0.000 H 
BRANCH    9   10
ATOM     10  N2  UNL A   1      13.835  12.752   6.451  1.00  0.00    +0.000 N 
ATOM    119  H14 UNL A   1      13.102  12.932   5.820  1.00  0.00    +0.000 H 
BRANCH   10   11
ATOM     11  C8  UNL A   1      14.028  13.684   7.427  1.00  0.00    +0.000 C 
ATOM     12  O2  UNL A   1      13.033  14.191   7.948  1.00  0.00    +0.000 O 
BRANCH   11   13
ATOM     13  C9  UNL A   1      15.443  14.092   7.862  1.00  0.00    +0.000 C 
ATOM    120  H15 UNL A   1      16.135  13.503   7.296  1.00  0.00    +0.000 H 
BRANCH   13   14
ATOM    121  H16 UNL A   1      15.842  12.699   9.442  1.00  0.00    +0.000 H 
ATOM    122  H17 UNL A   1      14.862  14.071   9.922  1.00  0.00    +0.000 H 
ATOM     14  C10 UNL A   1      15.703  13.755   9.339  1.00  0.00    +0.000 C 
BRANCH   14   15
ATOM    123  H18 UNL A   1      17.555  13.782  10.032  1.00  0.00    +0.000 H 
ATOM     15  O3  UNL A   1      16.875  14.433   9.802  1.00  0.00    +0.000 O 
ENDBRANCH   14   15
ENDBRANCH   13   14
BRANCH   13   16
ATOM    124  H19 UNL A   1      15.569  16.127   8.254  1.00  0.00    +0.000 H 
ATOM     16  N3  UNL A   1      15.741  15.485   7.527  1.00  0.00    +0.000 N 
BRANCH   16   17
ATOM     17  C11 UNL A   1      16.215  16.044   6.381  1.00  0.00    +0.000 C 
ATOM     18  O4  UNL A   1      15.351  16.225   5.513  1.00  0.00    +0.000 O 
BRANCH   17   19
ATOM     19  C12 UNL A   1      17.631  16.673   6.236  1.00  0.00    +0.000 C 
ATOM    125  H20 UNL A   1      17.872  16.542   5.201  1.00  0.00    +0.000 H 
BRANCH   19   20
ATOM     20  C13 UNL A   1      18.622  15.925   7.164  1.00  0.00    +0.000 C 
ATOM    126  H21 UNL A   1      18.916  15.017   6.680  1.00  0.00    +0.000 H 
ATOM    127  H22 UNL A   1      18.110  15.751   8.087  1.00  0.00    +0.000 H 
BRANCH   20   21
ATOM     21  S1  UNL A   1      20.129  16.879   7.565  1.00  0.00    +0.000 S 
ATOM    128  H23 UNL A   1      20.324  17.838   6.619  1.00  0.00    +0.000 H 
ENDBRANCH   20   21
ENDBRANCH   19   20
BRANCH   19   22
ATOM    129  H24 UNL A   1      18.586  18.482   6.037  1.00  0.00    +0.000 H 
ATOM     22  N4  UNL A   1      17.750  18.124   6.414  1.00  0.00    +0.000 N 
BRANCH   22   23
ATOM     23  C14 UNL A   1      16.978  19.090   6.978  1.00  0.00    +0.000 C 
ATOM     24  O5  UNL A   1      17.381  19.408   8.100  1.00  0.00    +0.000 O 
BRANCH   23   25
ATOM     25  C15 UNL A   1      15.820  19.864   6.281  1.00  0.00    +0.000 C 
ATOM    130  H25 UNL A   1      15.131  19.117   5.945  1.00  0.00    +0.000 H 
BRANCH   25   26
ATOM     26  C16 UNL A   1      16.312  20.705   5.061  1.00  0.00    +0.000 C 
ATOM    131  H26 UNL A   1      17.351  20.895   5.236  1.00  0.00    +0.000 H 
ATOM    132  H27 UNL A   1      15.610  21.511   5.064  1.00  0.00    +0.000 H 
BRANCH   26   27
ATOM    133  H28 UNL A   1      16.425  22.084   2.661  1.00  0.00    +0.000 H 
ATOM    134  H29 UNL A   1      15.935  21.288   0.434  1.00  0.00    +0.000 H 
ATOM    135  H30 UNL A   1      15.397  18.955   0.062  1.00  0.00    +0.000 H 
ATOM    136  H31 UNL A   1      15.401  17.412   1.934  1.00  0.00    +0.000 H 
ATOM    137  H32 UNL A   1      15.908  18.203   4.164  1.00  0.00    +0.000 H 
ATOM     27  C17 UNL A   1      16.212  20.223   3.622  1.00  0.00    +0.000 C 
ATOM     28  C18 UNL A   1      16.208  21.085   2.518  1.00  0.00    +0.000 C 
ATOM     29  C19 UNL A   1      15.922  20.628   1.228  1.00  0.00    +0.000 C 
ATOM     30  C20 UNL A   1      15.619  19.292   1.012  1.00  0.00    +0.000 C 
ATOM     31  C21 UNL A   1      15.618  18.409   2.087  1.00  0.00    +0.000 C 
ATOM     32  C22 UNL A   1      15.911  18.870   3.377  1.00  0.00    +0.000 C 
ENDBRANCH   26   27
ENDBRANCH   25   26
BRANCH   25   33
ATOM     33  N5  UNL A   1      15.186  20.802   7.223  1.00  0.00    +0.000 N 
ATOM    138  H33 UNL A   1      14.573  20.367   7.857  1.00  0.00    +0.000 H 
BRANCH   33   34
ATOM     34  C23 UNL A   1      15.279  22.157   7.394  1.00  0.00    +0.000 C 
ATOM     35  O6  UNL A   1      16.385  22.613   7.683  1.00  0.00    +0.000 O 
BRANCH   34   36
ATOM     36  C24 UNL A   1      14.119  23.087   7.326  1.00  0.00    +0.000 C 
ATOM     37  C25 UNL A   1      13.492  23.235   6.076  1.00  0.00    +0.000 C 
ATOM     38  C26 UNL A   1      12.477  24.178   5.892  1.00  0.00    +0.000 C 
ATOM     39  C27 UNL A   1      12.091  24.981   6.955  1.00  0.00    +0.000 C 
ATOM     40  F1  UNL A   1      11.133  25.900   6.779  1.00  0.00    +0.000 F 
ATOM     41  C28 UNL A   1      12.702  24.859   8.197  1.00  0.00    +0.000 C 
ATOM     42  C29 UNL A   1      13.721  23.917   8.380  1.00  0.00    +0.000 C 
ATOM    139  H34 UNL A   1      13.784  22.640   5.285  1.00  0.00    +0.000 H 
ATOM    140  H35 UNL A   1      12.018  24.277   4.972  1.00  0.00    +0.000 H 
ATOM    141  H36 UNL A   1      12.406  25.461   8.981  1.00  0.00    +0.000 H 
ATOM    142  H37 UNL A   1      14.182  23.835   9.299  1.00  0.00    +0.000 H 
ENDBRANCH   34   36
ENDBRANCH   33   34
ENDBRANCH   25   33
ENDBRANCH   23   25
ENDBRANCH   22   23
ENDBRANCH   19   22
ENDBRANCH   17   19
ENDBRANCH   16   17
ENDBRANCH   13   16
ENDBRANCH   11   13
ENDBRANCH   10   11
ENDBRANCH    9   10
ENDBRANCH    8    9
ENDBRANCH    7    8
ENDBRANCH    6    7
ENDBRANCH    5    6
ENDBRANCH    4    5
ENDBRANCH    3    4
ENDBRANCH    2    3
ENDBRANCH   43    2
ENDBRANCH   47   46
BRANCH   51   52
ATOM     52  C38 UNL A   1      22.528  11.568   6.844  1.00  0.00    +0.000 C 
ATOM     53  C39 UNL A   1      21.951  11.155   8.053  1.00  0.00    +0.000 C 
ATOM     54  F2  UNL A   1      21.351  12.048   8.854  1.00  0.00    +0.000 F 
ATOM     55  C40 UNL A   1      22.013   9.824   8.459  1.00  0.00    +0.000 C 
ATOM     56  F3  UNL A   1      21.485   9.459   9.635  1.00  0.00    +0.000 F 
ATOM     57  C41 UNL A   1      22.629   8.878   7.654  1.00  0.00    +0.000 C 
ATOM     58  F4  UNL A   1      22.682   7.597   8.043  1.00  0.00    +0.000 F 
ATOM     59  C42 UNL A   1      23.197   9.262   6.447  1.00  0.00    +0.000 C 
ATOM     60  F5  UNL A   1      23.784   8.347   5.664  1.00  0.00    +0.000 F 
ATOM     61  C43 UNL A   1      23.155  10.596   6.049  1.00  0.00    +0.000 C 
ATOM     62  F6  UNL A   1      23.720  10.938   4.881  1.00  0.00    +0.000 F 
ENDBRANCH   51   52
BRANCH   68   69
ATOM     69  C49 UNL A   1      25.822  17.858   8.101  1.00  0.00    +0.000 C 
ATOM     70  C50 UNL A   1      27.125  17.957   7.594  1.00  0.00    +0.000 C 
ATOM     71  F7  UNL A   1      27.396  17.547   6.345  1.00  0.00    +0.000 F 
ATOM     72  C51 UNL A   1      28.164  18.439   8.385  1.00  0.00    +0.000 C 
ATOM     73  F8  UNL A   1      29.411  18.483   7.896  1.00  0.00    +0.000 F 
ATOM     74  C52 UNL A   1      27.913  18.855   9.684  1.00  0.00    +0.000 C 
ATOM     75  F9  UNL A   1      28.915  19.318  10.445  1.00  0.00    +0.000 F 
ATOM     76  C53 UNL A   1      26.628  18.783  10.198  1.00  0.00    +0.000 C 
ATOM     77  F10 UNL A   1      26.383  19.192  11.451  1.00  0.00    +0.000 F 
ATOM     78  C54 UNL A   1      25.591  18.280   9.418  1.00  0.00    +0.000 C 
ATOM     79  F11 UNL A   1      24.359  18.207   9.945  1.00  0.00    +0.000 F 
ENDBRANCH   68   69
BRANCH   83   84
ATOM     84  C58 UNL A   1      21.494  20.968   3.626  1.00  0.00    +0.000 C 
ATOM     85  C59 UNL A   1      20.402  21.751   4.023  1.00  0.00    +0.000 C 
ATOM     86  F12 UNL A   1      19.453  21.226   4.812  1.00  0.00    +0.000 F 
ATOM     87  C60 UNL A   1      20.268  23.068   3.589  1.00  0.00    +0.000 C 
ATOM     88  F13 UNL A   1      19.199  23.786   3.958  1.00  0.00    +0.000 F 
ATOM     89  C61 UNL A   1      21.236  23.633   2.771  1.00  0.00    +0.000 C 
ATOM     90  F14 UNL A   1      21.113  24.903   2.364  1.00  0.00    +0.000 F 
ATOM     91  C62 UNL A   1      22.329  22.879   2.373  1.00  0.00    +0.000 C 
ATOM     92  F15 UNL A   1      23.274  23.426   1.596  1.00  0.00    +0.000 F 
ATOM     93  C63 UNL A   1      22.450  21.554   2.785  1.00  0.00    +0.000 C 
ATOM     94  F16 UNL A   1      23.517  20.846   2.384  1.00  0.00    +0.000 F 
ENDBRANCH   83   84
TORSDOF 30
ENDMDL
MODEL 7
REMARK VINA RESULT:      -8.1     42.251     46.961
ROOT
ATOM    145  H40 UNL A   1      43.570  44.008  19.821  1.00  0.00    +0.000 H 
ATOM    146  H41 UNL A   1      44.268  42.783  22.015  1.00  0.00    +0.000 H 
ATOM    147  H42 UNL A   1      46.642  46.149  21.593  1.00  0.00    +0.000 H 
ATOM    148  H43 UNL A   1      51.436  49.793  23.686  1.00  0.00    +0.000 H 
ATOM    149  H44 UNL A   1      50.642  51.076  21.644  1.00  0.00    +0.000 H 
ATOM    150  H45 UNL A   1      48.254  47.696  22.025  1.00  0.00    +0.000 H 
ATOM    151  H46 UNL A   1      49.782  45.404  26.223  1.00  0.00    +0.000 H 
ATOM    152  H47 UNL A   1      48.041  43.597  25.709  1.00  0.00    +0.000 H 
ATOM    153  H48 UNL A   1      45.149  48.570  17.459  1.00  0.00    +0.000 H 
ATOM    154  H49 UNL A   1      47.051  50.248  17.812  1.00  0.00    +0.000 H 
ATOM     47  C34 UNL A   1      48.546  49.800  20.200  1.00  0.00    +0.000 C 
ATOM     48  C35 UNL A   1      47.419  48.976  19.652  1.00  0.00    +0.000 C 
ATOM     49  N6  UNL A   1      46.888  47.881  20.137  1.00  0.00    +0.000 N 
ATOM     50  C36 UNL A   1      45.865  47.535  19.266  1.00  0.00    +0.000 C 
ATOM     51  C37 UNL A   1      45.033  46.466  19.326  1.00  0.00    +0.000 C 
ATOM     63  C44 UNL A   1      45.082  45.454  20.349  1.00  0.00    +0.000 C 
ATOM     64  C45 UNL A   1      44.306  44.315  20.477  1.00  0.00    +0.000 C 
ATOM     65  C46 UNL A   1      44.689  43.651  21.648  1.00  0.00    +0.000 C 
ATOM     66  C47 UNL A   1      45.730  44.355  22.230  1.00  0.00    +0.000 C 
ATOM     67  N7  UNL A   1      45.959  45.461  21.425  1.00  0.00    +0.000 N 
ATOM     68  C48 UNL A   1      46.462  44.044  23.430  1.00  0.00    +0.000 C 
ATOM     80  C55 UNL A   1      47.490  44.772  23.930  1.00  0.00    +0.000 C 
ATOM     81  N8  UNL A   1      48.050  45.941  23.437  1.00  0.00    +0.000 N 
ATOM     82  C56 UNL A   1      48.994  46.271  24.282  1.00  0.00    +0.000 C 
ATOM     83  C57 UNL A   1      49.929  47.445  24.243  1.00  0.00    +0.000 C 
ATOM     95  C64 UNL A   1      49.821  48.332  23.239  1.00  0.00    +0.000 C 
ATOM     96  C65 UNL A   1      50.658  49.516  23.069  1.00  0.00    +0.000 C 
ATOM     97  C66 UNL A   1      50.248  50.184  21.982  1.00  0.00    +0.000 C 
ATOM     98  C67 UNL A   1      49.153  49.446  21.349  1.00  0.00    +0.000 C 
ATOM     99  N9  UNL A   1      48.952  48.372  22.176  1.00  0.00    +0.000 N 
ATOM    100  C68 UNL A   1      49.136  45.352  25.419  1.00  0.00    +0.000 C 
ATOM    101  C69 UNL A   1      48.217  44.439  25.138  1.00  0.00    +0.000 C 
ATOM    102  C70 UNL A   1      45.833  48.546  18.231  1.00  0.00    +0.000 C 
ATOM    103  C71 UNL A   1      46.800  49.440  18.402  1.00  0.00    +0.000 C 
ENDROOT
BRANCH   47   46
ATOM    104  C72 UNL A   1      48.532  52.280  19.778  1.00  0.00    +0.000 C 
ATOM    105  C73 UNL A   1      49.034  53.403  19.114  1.00  0.00    +0.000 C 
ATOM     43  C30 UNL A   1      50.068  53.255  18.185  1.00  0.00    +0.000 C 
ATOM     44  C31 UNL A   1      50.626  51.996  17.948  1.00  0.00    +0.000 C 
ATOM     45  C32 UNL A   1      50.077  50.870  18.553  1.00  0.00    +0.000 C 
ATOM     46  C33 UNL A   1      49.037  51.004  19.486  1.00  0.00    +0.000 C 
ATOM    143  H38 UNL A   1      51.443  51.900  17.324  1.00  0.00    +0.000 H 
ATOM    144  H39 UNL A   1      50.436  49.933  18.315  1.00  0.00    +0.000 H 
ATOM    155  H50 UNL A   1      47.789  52.390  20.485  1.00  0.00    +0.000 H 
ATOM    156  H51 UNL A   1      48.642  54.338  19.309  1.00  0.00    +0.000 H 
BRANCH   43    2
ATOM      1  O1  UNL A   1      49.813  55.102  16.761  1.00  0.00    +0.000 O 
ATOM      2  C1  UNL A   1      50.570  54.448  17.470  1.00  0.00    +0.000 C 
BRANCH    2    3
ATOM    106  H1  UNL A   1      52.473  54.569  16.842  1.00  0.00    +0.000 H 
ATOM      3  N1  UNL A   1      51.888  54.807  17.598  1.00  0.00    +0.000 N 
BRANCH    3    4
ATOM    108  H3  UNL A   1      52.977  54.754  19.337  1.00  0.00    +0.000 H 
ATOM    107  H2  UNL A   1      53.267  56.165  18.318  1.00  0.00    +0.000 H 
ATOM      4  C2  UNL A   1      52.530  55.493  18.706  1.00  0.00    +0.000 C 
BRANCH    4    5
ATOM    109  H4  UNL A   1      50.581  55.799  19.474  1.00  0.00    +0.000 H 
ATOM      5  C3  UNL A   1      51.533  56.284  19.539  1.00  0.00    +0.000 C 
ATOM    110  H5  UNL A   1      51.521  57.277  19.141  1.00  0.00    +0.000 H 
BRANCH    5    6
ATOM      6  C4  UNL A   1      51.906  56.409  21.017  1.00  0.00    +0.000 C 
ATOM    111  H6  UNL A   1      51.592  55.515  21.515  1.00  0.00    +0.000 H 
ATOM    112  H7  UNL A   1      51.417  57.290  21.375  1.00  0.00    +0.000 H 
BRANCH    6    7
ATOM    113  H8  UNL A   1      53.526  57.551  21.783  1.00  0.00    +0.000 H 
ATOM    114  H9  UNL A   1      53.889  56.548  20.344  1.00  0.00    +0.000 H 
ATOM      7  C5  UNL A   1      53.401  56.606  21.295  1.00  0.00    +0.000 C 
BRANCH    7    8
ATOM    115  H10 UNL A   1      53.499  54.619  22.055  1.00  0.00    +0.000 H 
ATOM    116  H11 UNL A   1      54.030  55.892  23.180  1.00  0.00    +0.000 H 
ATOM      8  C6  UNL A   1      54.051  55.528  22.174  1.00  0.00    +0.000 C 
BRANCH    8    9
ATOM      9  C7  UNL A   1      55.515  55.252  21.832  1.00  0.00    +0.000 C 
ATOM    117  H12 UNL A   1      56.004  54.838  22.689  1.00  0.00    +0.000 H 
ATOM    118  H13 UNL A   1      55.981  56.172  21.548  1.00  0.00    +0.000 H 
BRANCH    9   10
ATOM     10  N2  UNL A   1      55.617  54.319  20.730  1.00  0.00    +0.000 N 
ATOM    119  H14 UNL A   1      55.966  54.683  19.885  1.00  0.00    +0.000 H 
BRANCH   10   11
ATOM     11  C8  UNL A   1      55.285  52.997  20.723  1.00  0.00    +0.000 C 
ATOM     12  O2  UNL A   1      55.955  52.228  21.415  1.00  0.00    +0.000 O 
BRANCH   11   13
ATOM     13  C9  UNL A   1      54.116  52.479  19.873  1.00  0.00    +0.000 C 
ATOM    120  H15 UNL A   1      53.691  53.321  19.366  1.00  0.00    +0.000 H 
BRANCH   13   14
ATOM    121  H16 UNL A   1      53.417  51.498  21.647  1.00  0.00    +0.000 H 
ATOM    122  H17 UNL A   1      52.496  51.120  20.203  1.00  0.00    +0.000 H 
ATOM     14  C10 UNL A   1      52.994  51.896  20.747  1.00  0.00    +0.000 C 
BRANCH   14   15
ATOM    123  H18 UNL A   1      52.517  53.736  21.293  1.00  0.00    +0.000 H 
ATOM     15  O3  UNL A   1      52.046  52.915  21.081  1.00  0.00    +0.000 O 
ENDBRANCH   14   15
ENDBRANCH   13   14
BRANCH   13   16
ATOM    124  H19 UNL A   1      55.155  51.973  18.149  1.00  0.00    +0.000 H 
ATOM     16  N3  UNL A   1      54.561  51.565  18.821  1.00  0.00    +0.000 N 
BRANCH   16   17
ATOM     17  C11 UNL A   1      54.294  50.247  18.614  1.00  0.00    +0.000 C 
ATOM     18  O4  UNL A   1      53.479  50.034  17.707  1.00  0.00    +0.000 O 
BRANCH   17   19
ATOM     19  C12 UNL A   1      55.119  49.081  19.230  1.00  0.00    +0.000 C 
ATOM    125  H20 UNL A   1      55.821  49.568  19.876  1.00  0.00    +0.000 H 
BRANCH   19   20
ATOM     20  C13 UNL A   1      55.821  48.293  18.096  1.00  0.00    +0.000 C 
ATOM    126  H21 UNL A   1      55.653  48.809  17.174  1.00  0.00    +0.000 H 
ATOM    127  H22 UNL A   1      55.401  47.308  18.098  1.00  0.00    +0.000 H 
BRANCH   20   21
ATOM     21  S1  UNL A   1      57.624  48.100  18.328  1.00  0.00    +0.000 S 
ATOM    128  H23 UNL A   1      58.121  47.282  17.361  1.00  0.00    +0.000 H 
ENDBRANCH   20   21
ENDBRANCH   19   20
BRANCH   19   22
ATOM    129  H24 UNL A   1      54.971  47.929  20.927  1.00  0.00    +0.000 H 
ATOM     22  N4  UNL A   1      54.424  48.166  20.143  1.00  0.00    +0.000 N 
BRANCH   22   23
ATOM     23  C14 UNL A   1      53.204  47.569  20.161  1.00  0.00    +0.000 C 
ATOM     24  O5  UNL A   1      52.665  47.651  21.267  1.00  0.00    +0.000 O 
BRANCH   23   25
ATOM     25  C15 UNL A   1      52.450  46.984  18.930  1.00  0.00    +0.000 C 
ATOM    130  H25 UNL A   1      52.698  47.621  18.106  1.00  0.00    +0.000 H 
BRANCH   25   26
ATOM     26  C16 UNL A   1      50.902  46.970  19.130  1.00  0.00    +0.000 C 
ATOM    131  H26 UNL A   1      50.648  47.930  19.526  1.00  0.00    +0.000 H 
ATOM    132  H27 UNL A   1      50.775  46.090  19.726  1.00  0.00    +0.000 H 
BRANCH   26   27
ATOM    133  H28 UNL A   1      50.469  48.308  16.743  1.00  0.00    +0.000 H 
ATOM    134  H29 UNL A   1      48.673  48.023  15.153  1.00  0.00    +0.000 H 
ATOM    135  H30 UNL A   1      47.025  46.276  15.471  1.00  0.00    +0.000 H 
ATOM    136  H31 UNL A   1      47.219  44.780  17.371  1.00  0.00    +0.000 H 
ATOM    137  H32 UNL A   1      49.027  45.051  18.957  1.00  0.00    +0.000 H 
ATOM     27  C17 UNL A   1      49.918  46.711  17.999  1.00  0.00    +0.000 C 
ATOM     28  C18 UNL A   1      49.782  47.551  16.887  1.00  0.00    +0.000 C 
ATOM     29  C19 UNL A   1      48.741  47.391  15.966  1.00  0.00    +0.000 C 
ATOM     30  C20 UNL A   1      47.800  46.388  16.144  1.00  0.00    +0.000 C 
ATOM     31  C21 UNL A   1      47.910  45.534  17.236  1.00  0.00    +0.000 C 
ATOM     32  C22 UNL A   1      48.958  45.693  18.152  1.00  0.00    +0.000 C 
ENDBRANCH   26   27
ENDBRANCH   25   26
BRANCH   25   33
ATOM     33  N5  UNL A   1      52.866  45.593  18.683  1.00  0.00    +0.000 N 
ATOM    138  H33 UNL A   1      53.767  45.515  18.295  1.00  0.00    +0.000 H 
BRANCH   33   34
ATOM     34  C23 UNL A   1      52.252  44.386  18.886  1.00  0.00    +0.000 C 
ATOM     35  O6  UNL A   1      52.132  43.645  17.910  1.00  0.00    +0.000 O 
BRANCH   34   36
ATOM     36  C24 UNL A   1      51.662  43.958  20.184  1.00  0.00    +0.000 C 
ATOM     37  C25 UNL A   1      52.498  44.011  21.314  1.00  0.00    +0.000 C 
ATOM     38  C26 UNL A   1      52.067  43.513  22.547  1.00  0.00    +0.000 C 
ATOM     39  C27 UNL A   1      50.802  42.954  22.652  1.00  0.00    +0.000 C 
ATOM     40  F1  UNL A   1      50.392  42.457  23.825  1.00  0.00    +0.000 F 
ATOM     41  C28 UNL A   1      49.962  42.883  21.547  1.00  0.00    +0.000 C 
ATOM     42  C29 UNL A   1      50.394  43.378  20.312  1.00  0.00    +0.000 C 
ATOM    139  H34 UNL A   1      53.441  44.423  21.232  1.00  0.00    +0.000 H 
ATOM    140  H35 UNL A   1      52.686  43.559  23.372  1.00  0.00    +0.000 H 
ATOM    141  H36 UNL A   1      49.023  42.466  21.637  1.00  0.00    +0.000 H 
ATOM    142  H37 UNL A   1      49.775  43.316  19.490  1.00  0.00    +0.000 H 
ENDBRANCH   34   36
ENDBRANCH   33   34
ENDBRANCH   25   33
ENDBRANCH   23   25
ENDBRANCH   22   23
ENDBRANCH   19   22
ENDBRANCH   17   19
ENDBRANCH   16   17
ENDBRANCH   13   16
ENDBRANCH   11   13
ENDBRANCH   10   11
ENDBRANCH    9   10
ENDBRANCH    8    9
ENDBRANCH    7    8
ENDBRANCH    6    7
ENDBRANCH    5    6
ENDBRANCH    4    5
ENDBRANCH    3    4
ENDBRANCH    2    3
ENDBRANCH   43    2
ENDBRANCH   47   46
BRANCH   51   52
ATOM     52  C38 UNL A   1      43.986  46.341  18.259  1.00  0.00    +0.000 C 
ATOM     53  C39 UNL A   1      43.918  45.217  17.425  1.00  0.00    +0.000 C 
ATOM     54  F2  UNL A   1      44.837  44.245  17.524  1.00  0.00    +0.000 F 
ATOM     55  C40 UNL A   1      42.920  45.100  16.460  1.00  0.00    +0.000 C 
ATOM     56  F3  UNL A   1      42.896  44.034  15.648  1.00  0.00    +0.000 F 
ATOM     57  C41 UNL A   1      41.957  46.090  16.330  1.00  0.00    +0.000 C 
ATOM     58  F4  UNL A   1      40.994  45.972  15.406  1.00  0.00    +0.000 F 
ATOM     59  C42 UNL A   1      41.998  47.205  17.154  1.00  0.00    +0.000 C 
ATOM     60  F5  UNL A   1      41.063  48.158  17.036  1.00  0.00    +0.000 F 
ATOM     61  C43 UNL A   1      43.007  47.334  18.105  1.00  0.00    +0.000 C 
ATOM     62  F6  UNL A   1      43.025  48.428  18.881  1.00  0.00    +0.000 F 
ENDBRANCH   51   52
BRANCH   68   69
ATOM     69  C49 UNL A   1      46.078  42.809  24.187  1.00  0.00    +0.000 C 
ATOM     70  C50 UNL A   1      46.733  41.588  23.971  1.00  0.00    +0.000 C 
ATOM     71  F7  UNL A   1      47.700  41.495  23.045  1.00  0.00    +0.000 F 
ATOM     72  C51 UNL A   1      46.364  40.446  24.677  1.00  0.00    +0.000 C 
ATOM     73  F8  UNL A   1      46.971  39.279  24.423  1.00  0.00    +0.000 F 
ATOM     74  C52 UNL A   1      45.358  40.512  25.629  1.00  0.00    +0.000 C 
ATOM     75  F9  UNL A   1      45.004  39.412  26.307  1.00  0.00    +0.000 F 
ATOM     76  C53 UNL A   1      44.712  41.714  25.872  1.00  0.00    +0.000 C 
ATOM     77  F10 UNL A   1      43.744  41.780  26.797  1.00  0.00    +0.000 F 
ATOM     78  C54 UNL A   1      45.061  42.852  25.151  1.00  0.00    +0.000 C 
ATOM     79  F11 UNL A   1      44.409  44.000  25.394  1.00  0.00    +0.000 F 
ENDBRANCH   68   69
BRANCH   83   84
ATOM     84  C58 UNL A   1      50.970  47.637  25.283  1.00  0.00    +0.000 C 
ATOM     85  C59 UNL A   1      50.695  48.362  26.450  1.00  0.00    +0.000 C 
ATOM     86  F12 UNL A   1      49.494  48.933  26.617  1.00  0.00    +0.000 F 
ATOM     87  C60 UNL A   1      51.664  48.525  27.437  1.00  0.00    +0.000 C 
ATOM     88  F13 UNL A   1      51.387  49.248  28.530  1.00  0.00    +0.000 F 
ATOM     89  C61 UNL A   1      52.916  47.945  27.287  1.00  0.00    +0.000 C 
ATOM     90  F14 UNL A   1      53.843  48.092  28.243  1.00  0.00    +0.000 F 
ATOM     91  C62 UNL A   1      53.206  47.216  26.144  1.00  0.00    +0.000 C 
ATOM     92  F15 UNL A   1      54.409  46.642  26.002  1.00  0.00    +0.000 F 
ATOM     93  C63 UNL A   1      52.247  47.075  25.145  1.00  0.00    +0.000 C 
ATOM     94  F16 UNL A   1      52.554  46.367  24.047  1.00  0.00    +0.000 F 
ENDBRANCH   83   84
TORSDOF 30
ENDMDL
MODEL 8
REMARK VINA RESULT:      -8.0     39.727     44.439
ROOT
ATOM    145  H40 UNL A   1      44.851  44.501  22.865  1.00  0.00    +0.000 H 
ATOM    146  H41 UNL A   1      43.943  45.653  20.709  1.00  0.00    +0.000 H 
ATOM    147  H42 UNL A   1      47.901  44.623  20.064  1.00  0.00    +0.000 H 
ATOM    148  H43 UNL A   1      53.046  44.652  16.299  1.00  0.00    +0.000 H 
ATOM    149  H44 UNL A   1      53.878  43.378  18.332  1.00  0.00    +0.000 H 
ATOM    150  H45 UNL A   1      49.913  44.415  19.022  1.00  0.00    +0.000 H 
ATOM    151  H46 UNL A   1      48.346  46.701  14.836  1.00  0.00    +0.000 H 
ATOM    152  H47 UNL A   1      46.100  47.036  16.021  1.00  0.00    +0.000 H 
ATOM    153  H48 UNL A   1      49.556  42.253  24.165  1.00  0.00    +0.000 H 
ATOM    154  H49 UNL A   1      51.883  42.137  23.101  1.00  0.00    +0.000 H 
ATOM     47  C34 UNL A   1      51.982  43.178  20.447  1.00  0.00    +0.000 C 
ATOM     48  C35 UNL A   1      50.809  43.152  21.382  1.00  0.00    +0.000 C 
ATOM     49  N6  UNL A   1      49.595  43.604  21.191  1.00  0.00    +0.000 N 
ATOM     50  C36 UNL A   1      48.893  43.312  22.352  1.00  0.00    +0.000 C 
ATOM     51  C37 UNL A   1      47.602  43.597  22.650  1.00  0.00    +0.000 C 
ATOM     63  C44 UNL A   1      46.700  44.297  21.771  1.00  0.00    +0.000 C 
ATOM     64  C45 UNL A   1      45.385  44.664  21.996  1.00  0.00    +0.000 C 
ATOM     65  C46 UNL A   1      44.901  45.294  20.843  1.00  0.00    +0.000 C 
ATOM     66  C47 UNL A   1      45.926  45.354  19.914  1.00  0.00    +0.000 C 
ATOM     67  N7  UNL A   1      47.023  44.735  20.494  1.00  0.00    +0.000 N 
ATOM     68  C48 UNL A   1      45.908  45.930  18.595  1.00  0.00    +0.000 C 
ATOM     80  C55 UNL A   1      46.963  45.972  17.745  1.00  0.00    +0.000 C 
ATOM     81  N8  UNL A   1      48.247  45.483  17.927  1.00  0.00    +0.000 N 
ATOM     82  C56 UNL A   1      48.890  45.740  16.815  1.00  0.00    +0.000 C 
ATOM     83  C57 UNL A   1      50.316  45.437  16.456  1.00  0.00    +0.000 C 
ATOM     95  C64 UNL A   1      51.090  44.794  17.347  1.00  0.00    +0.000 C 
ATOM     96  C65 UNL A   1      52.490  44.435  17.140  1.00  0.00    +0.000 C 
ATOM     97  C66 UNL A   1      52.933  43.776  18.221  1.00  0.00    +0.000 C 
ATOM     98  C67 UNL A   1      51.862  43.714  19.218  1.00  0.00    +0.000 C 
ATOM     99  N9  UNL A   1      50.799  44.323  18.604  1.00  0.00    +0.000 N 
ATOM    100  C68 UNL A   1      48.081  46.415  15.792  1.00  0.00    +0.000 C 
ATOM    101  C69 UNL A   1      46.924  46.561  16.422  1.00  0.00    +0.000 C 
ATOM    102  C70 UNL A   1      49.810  42.625  23.237  1.00  0.00    +0.000 C 
ATOM    103  C71 UNL A   1      51.020  42.535  22.699  1.00  0.00    +0.000 C 
ENDROOT
BRANCH   47   46
ATOM    104  C72 UNL A   1      54.184  43.396  21.645  1.00  0.00    +0.000 C 
ATOM    105  C73 UNL A   1      55.410  42.857  22.042  1.00  0.00    +0.000 C 
ATOM     43  C30 UNL A   1      55.740  41.547  21.684  1.00  0.00    +0.000 C 
ATOM     44  C31 UNL A   1      54.834  40.764  20.963  1.00  0.00    +0.000 C 
ATOM     45  C32 UNL A   1      53.647  41.326  20.504  1.00  0.00    +0.000 C 
ATOM     46  C33 UNL A   1      53.304  42.641  20.855  1.00  0.00    +0.000 C 
ATOM    143  H38 UNL A   1      55.044  39.773  20.770  1.00  0.00    +0.000 H 
ATOM    144  H39 UNL A   1      53.016  40.774  19.903  1.00  0.00    +0.000 H 
ATOM    155  H50 UNL A   1      53.926  44.353  21.932  1.00  0.00    +0.000 H 
ATOM    156  H51 UNL A   1      56.069  43.423  22.600  1.00  0.00    +0.000 H 
BRANCH   43    2
ATOM      1  O1  UNL A   1      57.117  40.159  22.980  1.00  0.00    +0.000 O 
ATOM      2  C1  UNL A   1      57.053  40.998  22.088  1.00  0.00    +0.000 C 
BRANCH    2    3
ATOM    106  H1  UNL A   1      58.948  41.659  22.060  1.00  0.00    +0.000 H 
ATOM      3  N1  UNL A   1      58.192  41.444  21.467  1.00  0.00    +0.000 N 
BRANCH    3    4
ATOM    108  H3  UNL A   1      57.680  42.313  19.679  1.00  0.00    +0.000 H 
ATOM    107  H2  UNL A   1      59.408  42.038  19.908  1.00  0.00    +0.000 H 
ATOM      4  C2  UNL A   1      58.425  41.639  20.047  1.00  0.00    +0.000 C 
BRANCH    4    5
ATOM    109  H4  UNL A   1      58.033  39.561  19.951  1.00  0.00    +0.000 H 
ATOM      5  C3  UNL A   1      58.308  40.337  19.268  1.00  0.00    +0.000 C 
ATOM    110  H5  UNL A   1      59.260  40.168  18.809  1.00  0.00    +0.000 H 
BRANCH    5    6
ATOM      6  C4  UNL A   1      57.278  40.370  18.137  1.00  0.00    +0.000 C 
ATOM    111  H6  UNL A   1      56.539  39.622  18.341  1.00  0.00    +0.000 H 
ATOM    112  H7  UNL A   1      57.821  40.195  17.233  1.00  0.00    +0.000 H 
BRANCH    6    7
ATOM    113  H8  UNL A   1      57.300  42.483  17.925  1.00  0.00    +0.000 H 
ATOM    114  H9  UNL A   1      55.880  41.798  18.775  1.00  0.00    +0.000 H 
ATOM      7  C5  UNL A   1      56.559  41.710  17.953  1.00  0.00    +0.000 C 
BRANCH    7    8
ATOM    115  H10 UNL A   1      56.331  41.628  15.837  1.00  0.00    +0.000 H 
ATOM    116  H11 UNL A   1      55.298  42.815  16.669  1.00  0.00    +0.000 H 
ATOM      8  C6  UNL A   1      55.705  41.826  16.682  1.00  0.00    +0.000 C 
BRANCH    8    9
ATOM      9  C7  UNL A   1      54.522  40.858  16.642  1.00  0.00    +0.000 C 
ATOM    117  H12 UNL A   1      54.005  40.896  17.578  1.00  0.00    +0.000 H 
ATOM    118  H13 UNL A   1      54.892  39.870  16.462  1.00  0.00    +0.000 H 
BRANCH    9   10
ATOM     10  N2  UNL A   1      53.606  41.213  15.579  1.00  0.00    +0.000 N 
ATOM    119  H14 UNL A   1      53.440  42.175  15.453  1.00  0.00    +0.000 H 
BRANCH   10   11
ATOM     11  C8  UNL A   1      52.945  40.374  14.732  1.00  0.00    +0.000 C 
ATOM     12  O2  UNL A   1      53.353  39.216  14.629  1.00  0.00    +0.000 O 
BRANCH   11   13
ATOM     13  C9  UNL A   1      51.732  40.859  13.925  1.00  0.00    +0.000 C 
ATOM    120  H15 UNL A   1      51.267  41.643  14.486  1.00  0.00    +0.000 H 
BRANCH   13   14
ATOM    121  H16 UNL A   1      49.977  39.820  14.585  1.00  0.00    +0.000 H 
ATOM    122  H17 UNL A   1      51.159  38.802  13.784  1.00  0.00    +0.000 H 
ATOM     14  C10 UNL A   1      50.673  39.756  13.774  1.00  0.00    +0.000 C 
BRANCH   14   15
ATOM    123  H18 UNL A   1      49.484  39.096  12.337  1.00  0.00    +0.000 H 
ATOM     15  O3  UNL A   1      49.971  39.910  12.536  1.00  0.00    +0.000 O 
ENDBRANCH   14   15
ENDBRANCH   13   14
BRANCH   13   16
ATOM    124  H19 UNL A   1      51.497  42.141  12.309  1.00  0.00    +0.000 H 
ATOM     16  N3  UNL A   1      52.124  41.462  12.651  1.00  0.00    +0.000 N 
BRANCH   16   17
ATOM     17  C11 UNL A   1      53.207  41.242  11.857  1.00  0.00    +0.000 C 
ATOM     18  O4  UNL A   1      54.148  42.021  12.060  1.00  0.00    +0.000 O 
BRANCH   17   19
ATOM     19  C12 UNL A   1      53.401  39.976  10.974  1.00  0.00    +0.000 C 
ATOM    125  H20 UNL A   1      52.552  39.364  11.201  1.00  0.00    +0.000 H 
BRANCH   19   20
ATOM     20  C13 UNL A   1      54.735  39.284  11.355  1.00  0.00    +0.000 C 
ATOM    126  H21 UNL A   1      54.646  38.909  12.353  1.00  0.00    +0.000 H 
ATOM    127  H22 UNL A   1      55.504  40.022  11.260  1.00  0.00    +0.000 H 
BRANCH   20   21
ATOM     21  S1  UNL A   1      55.193  37.897  10.255  1.00  0.00    +0.000 S 
ATOM    128  H23 UNL A   1      56.503  37.582  10.446  1.00  0.00    +0.000 H 
ENDBRANCH   20   21
ENDBRANCH   19   20
BRANCH   19   22
ATOM    129  H24 UNL A   1      53.990  39.633   9.035  1.00  0.00    +0.000 H 
ATOM     22  N4  UNL A   1      53.300  40.140   9.520  1.00  0.00    +0.000 N 
BRANCH   22   23
ATOM     23  C14 UNL A   1      52.479  40.829   8.685  1.00  0.00    +0.000 C 
ATOM     24  O5  UNL A   1      51.374  40.292   8.576  1.00  0.00    +0.000 O 
BRANCH   23   25
ATOM     25  C15 UNL A   1      52.774  42.219   8.047  1.00  0.00    +0.000 C 
ATOM    130  H25 UNL A   1      51.822  42.623   7.771  1.00  0.00    +0.000 H 
BRANCH   25   26
ATOM     26  C16 UNL A   1      53.681  42.114   6.781  1.00  0.00    +0.000 C 
ATOM    131  H26 UNL A   1      54.320  42.972   6.805  1.00  0.00    +0.000 H 
ATOM    132  H27 UNL A   1      52.951  42.009   6.006  1.00  0.00    +0.000 H 
BRANCH   26   27
ATOM    133  H28 UNL A   1      53.298  39.847   5.234  1.00  0.00    +0.000 H 
ATOM    134  H29 UNL A   1      54.661  37.857   5.101  1.00  0.00    +0.000 H 
ATOM    135  H30 UNL A   1      56.753  37.727   6.315  1.00  0.00    +0.000 H 
ATOM    136  H31 UNL A   1      57.497  39.628   7.625  1.00  0.00    +0.000 H 
ATOM    137  H32 UNL A   1      56.143  41.630   7.746  1.00  0.00    +0.000 H 
ATOM     27  C17 UNL A   1      54.588  40.925   6.501  1.00  0.00    +0.000 C 
ATOM     28  C18 UNL A   1      54.192  39.812   5.748  1.00  0.00    +0.000 C 
ATOM     29  C19 UNL A   1      54.977  38.658   5.672  1.00  0.00    +0.000 C 
ATOM     30  C20 UNL A   1      56.178  38.583   6.361  1.00  0.00    +0.000 C 
ATOM     31  C21 UNL A   1      56.601  39.672   7.115  1.00  0.00    +0.000 C 
ATOM     32  C22 UNL A   1      55.815  40.830   7.184  1.00  0.00    +0.000 C 
ENDBRANCH   26   27
ENDBRANCH   25   26
BRANCH   25   33
ATOM     33  N5  UNL A   1      53.475  43.089   9.007  1.00  0.00    +0.000 N 
ATOM    138  H33 UNL A   1      53.922  42.594   9.731  1.00  0.00    +0.000 H 
BRANCH   33   34
ATOM     34  C23 UNL A   1      53.630  44.446   9.095  1.00  0.00    +0.000 C 
ATOM     35  O6  UNL A   1      54.337  44.874  10.007  1.00  0.00    +0.000 O 
BRANCH   34   36
ATOM     36  C24 UNL A   1      52.940  45.423   8.208  1.00  0.00    +0.000 C 
ATOM     37  C25 UNL A   1      51.589  45.695   8.487  1.00  0.00    +0.000 C 
ATOM     38  C26 UNL A   1      50.831  46.502   7.633  1.00  0.00    +0.000 C 
ATOM     39  C27 UNL A   1      51.421  47.033   6.495  1.00  0.00    +0.000 C 
ATOM     40  F1  UNL A   1      50.694  47.790   5.663  1.00  0.00    +0.000 F 
ATOM     41  C28 UNL A   1      52.752  46.770   6.195  1.00  0.00    +0.000 C 
ATOM     42  C29 UNL A   1      53.509  45.959   7.047  1.00  0.00    +0.000 C 
ATOM    139  H34 UNL A   1      51.151  45.296   9.331  1.00  0.00    +0.000 H 
ATOM    140  H35 UNL A   1      49.841  46.701   7.847  1.00  0.00    +0.000 H 
ATOM    141  H36 UNL A   1      53.179  47.170   5.346  1.00  0.00    +0.000 H 
ATOM    142  H37 UNL A   1      54.494  45.755   6.818  1.00  0.00    +0.000 H 
ENDBRANCH   34   36
ENDBRANCH   33   34
ENDBRANCH   25   33
ENDBRANCH   23   25
ENDBRANCH   22   23
ENDBRANCH   19   22
ENDBRANCH   17   19
ENDBRANCH   16   17
ENDBRANCH   13   16
ENDBRANCH   11   13
ENDBRANCH   10   11
ENDBRANCH    9   10
ENDBRANCH    8    9
ENDBRANCH    7    8
ENDBRANCH    6    7
ENDBRANCH    5    6
ENDBRANCH    4    5
ENDBRANCH    3    4
ENDBRANCH    2    3
ENDBRANCH   43    2
ENDBRANCH   47   46
BRANCH   51   52
ATOM     52  C38 UNL A   1      47.078  43.141  23.979  1.00  0.00    +0.000 C 
ATOM     53  C39 UNL A   1      47.036  43.999  25.086  1.00  0.00    +0.000 C 
ATOM     54  F2  UNL A   1      47.525  45.245  24.994  1.00  0.00    +0.000 F 
ATOM     55  C40 UNL A   1      46.518  43.570  26.306  1.00  0.00    +0.000 C 
ATOM     56  F3  UNL A   1      46.521  44.396  27.362  1.00  0.00    +0.000 F 
ATOM     57  C41 UNL A   1      46.008  42.287  26.434  1.00  0.00    +0.000 C 
ATOM     58  F4  UNL A   1      45.503  41.878  27.606  1.00  0.00    +0.000 F 
ATOM     59  C42 UNL A   1      46.028  41.424  25.348  1.00  0.00    +0.000 C 
ATOM     60  F5  UNL A   1      45.528  40.187  25.467  1.00  0.00    +0.000 F 
ATOM     61  C43 UNL A   1      46.566  41.844  24.133  1.00  0.00    +0.000 C 
ATOM     62  F6  UNL A   1      46.579  40.984  23.103  1.00  0.00    +0.000 F 
ENDBRANCH   51   52
BRANCH   68   69
ATOM     69  C49 UNL A   1      44.632  46.554  18.118  1.00  0.00    +0.000 C 
ATOM     70  C50 UNL A   1      44.289  47.869  18.464  1.00  0.00    +0.000 C 
ATOM     71  F7  UNL A   1      45.089  48.586  19.267  1.00  0.00    +0.000 F 
ATOM     72  C51 UNL A   1      43.098  48.436  18.019  1.00  0.00    +0.000 C 
ATOM     73  F8  UNL A   1      42.767  49.678  18.398  1.00  0.00    +0.000 F 
ATOM     74  C52 UNL A   1      42.246  47.711  17.200  1.00  0.00    +0.000 C 
ATOM     75  F9  UNL A   1      41.100  48.259  16.773  1.00  0.00    +0.000 F 
ATOM     76  C53 UNL A   1      42.576  46.417  16.830  1.00  0.00    +0.000 C 
ATOM     77  F10 UNL A   1      41.756  45.718  16.032  1.00  0.00    +0.000 F 
ATOM     78  C54 UNL A   1      43.754  45.838  17.292  1.00  0.00    +0.000 C 
ATOM     79  F11 UNL A   1      44.042  44.577  16.932  1.00  0.00    +0.000 F 
ENDBRANCH   68   69
BRANCH   83   84
ATOM     84  C58 UNL A   1      50.884  45.841  15.147  1.00  0.00    +0.000 C 
ATOM     85  C59 UNL A   1      51.495  47.092  14.984  1.00  0.00    +0.000 C 
ATOM     86  F12 UNL A   1      51.528  47.959  16.006  1.00  0.00    +0.000 F 
ATOM     87  C60 UNL A   1      52.050  47.465  13.762  1.00  0.00    +0.000 C 
ATOM     88  F13 UNL A   1      52.601  48.678  13.622  1.00  0.00    +0.000 F 
ATOM     89  C61 UNL A   1      52.026  46.585  12.689  1.00  0.00    +0.000 C 
ATOM     90  F14 UNL A   1      52.570  46.940  11.517  1.00  0.00    +0.000 F 
ATOM     91  C62 UNL A   1      51.434  45.340  12.831  1.00  0.00    +0.000 C 
ATOM     92  F15 UNL A   1      51.423  44.481  11.802  1.00  0.00    +0.000 F 
ATOM     93  C63 UNL A   1      50.856  44.976  14.045  1.00  0.00    +0.000 C 
ATOM     94  F16 UNL A   1      50.288  43.766  14.155  1.00  0.00    +0.000 F 
ENDBRANCH   83   84
TORSDOF 30
ENDMDL
MODEL 9
REMARK VINA RESULT:      -8.0     39.701     44.536
ROOT
ATOM    145  H40 UNL A   1      44.840  44.443  22.837  1.00  0.00    +0.000 H 
ATOM    146  H41 UNL A   1      43.922  45.611  20.694  1.00  0.00    +0.000 H 
ATOM    147  H42 UNL A   1      47.888  44.622  20.038  1.00  0.00    +0.000 H 
ATOM    148  H43 UNL A   1      53.033  44.736  16.274  1.00  0.00    +0.000 H 
ATOM    149  H44 UNL A   1      53.876  43.447  18.292  1.00  0.00    +0.000 H 
ATOM    150  H45 UNL A   1      49.902  44.442  18.994  1.00  0.00    +0.000 H 
ATOM    151  H46 UNL A   1      48.315  46.761  14.833  1.00  0.00    +0.000 H 
ATOM    152  H47 UNL A   1      46.067  47.064  16.021  1.00  0.00    +0.000 H 
ATOM    153  H48 UNL A   1      49.563  42.221  24.113  1.00  0.00    +0.000 H 
ATOM    154  H49 UNL A   1      51.891  42.136  23.048  1.00  0.00    +0.000 H 
ATOM     47  C34 UNL A   1      51.982  43.207  20.405  1.00  0.00    +0.000 C 
ATOM     48  C35 UNL A   1      50.809  43.162  21.340  1.00  0.00    +0.000 C 
ATOM     49  N6  UNL A   1      49.591  43.605  21.154  1.00  0.00    +0.000 N 
ATOM     50  C36 UNL A   1      48.891  43.294  22.311  1.00  0.00    +0.000 C 
ATOM     51  C37 UNL A   1      47.598  43.565  22.612  1.00  0.00    +0.000 C 
ATOM     63  C44 UNL A   1      46.690  44.267  21.741  1.00  0.00    +0.000 C 
ATOM     64  C45 UNL A   1      45.372  44.620  21.970  1.00  0.00    +0.000 C 
ATOM     65  C46 UNL A   1      44.882  45.259  20.824  1.00  0.00    +0.000 C 
ATOM     66  C47 UNL A   1      45.907  45.338  19.896  1.00  0.00    +0.000 C 
ATOM     67  N7  UNL A   1      47.009  44.722  20.469  1.00  0.00    +0.000 N 
ATOM     68  C48 UNL A   1      45.884  45.928  18.583  1.00  0.00    +0.000 C 
ATOM     80  C55 UNL A   1      46.939  45.988  17.734  1.00  0.00    +0.000 C 
ATOM     81  N8  UNL A   1      48.227  45.508  17.910  1.00  0.00    +0.000 N 
ATOM     82  C56 UNL A   1      48.868  45.783  16.801  1.00  0.00    +0.000 C 
ATOM     83  C57 UNL A   1      50.296  45.496  16.439  1.00  0.00    +0.000 C 
ATOM     95  C64 UNL A   1      51.076  44.850  17.323  1.00  0.00    +0.000 C 
ATOM     96  C65 UNL A   1      52.478  44.505  17.113  1.00  0.00    +0.000 C 
ATOM     97  C66 UNL A   1      52.927  43.839  18.186  1.00  0.00    +0.000 C 
ATOM     98  C67 UNL A   1      51.857  43.756  19.182  1.00  0.00    +0.000 C 
ATOM     99  N9  UNL A   1      50.789  44.363  18.575  1.00  0.00    +0.000 N 
ATOM    100  C68 UNL A   1      48.053  46.463  15.786  1.00  0.00    +0.000 C 
ATOM    101  C69 UNL A   1      46.895  46.592  16.418  1.00  0.00    +0.000 C 
ATOM    102  C70 UNL A   1      49.814  42.605  23.189  1.00  0.00    +0.000 C 
ATOM    103  C71 UNL A   1      51.025  42.532  22.650  1.00  0.00    +0.000 C 
ENDROOT
BRANCH   47   46
ATOM    104  C72 UNL A   1      54.212  43.460  21.542  1.00  0.00    +0.000 C 
ATOM    105  C73 UNL A   1      55.443  42.927  21.936  1.00  0.00    +0.000 C 
ATOM     43  C30 UNL A   1      55.754  41.600  21.630  1.00  0.00    +0.000 C 
ATOM     44  C31 UNL A   1      54.824  40.793  20.966  1.00  0.00    +0.000 C 
ATOM     45  C32 UNL A   1      53.632  41.345  20.509  1.00  0.00    +0.000 C 
ATOM     46  C33 UNL A   1      53.308  42.678  20.808  1.00  0.00    +0.000 C 
ATOM    143  H38 UNL A   1      55.022  39.792  20.813  1.00  0.00    +0.000 H 
ATOM    144  H39 UNL A   1      52.983  40.772  19.948  1.00  0.00    +0.000 H 
ATOM    155  H50 UNL A   1      53.968  44.431  21.791  1.00  0.00    +0.000 H 
ATOM    156  H51 UNL A   1      56.118  43.512  22.452  1.00  0.00    +0.000 H 
BRANCH   43    2
ATOM      1  O1  UNL A   1      57.148  40.254  22.953  1.00  0.00    +0.000 O 
ATOM      2  C1  UNL A   1      57.071  41.057  22.029  1.00  0.00    +0.000 C 
BRANCH    2    3
ATOM    106  H1  UNL A   1      58.969  41.703  21.936  1.00  0.00    +0.000 H 
ATOM      3  N1  UNL A   1      58.200  41.469  21.368  1.00  0.00    +0.000 N 
BRANCH    3    4
ATOM    108  H3  UNL A   1      57.674  42.289  19.561  1.00  0.00    +0.000 H 
ATOM    107  H2  UNL A   1      59.397  41.963  19.760  1.00  0.00    +0.000 H 
ATOM      4  C2  UNL A   1      58.404  41.604  19.936  1.00  0.00    +0.000 C 
BRANCH    4    5
ATOM    109  H4  UNL A   1      57.939  39.539  19.926  1.00  0.00    +0.000 H 
ATOM      5  C3  UNL A   1      58.225  40.280  19.209  1.00  0.00    +0.000 C 
ATOM    110  H5  UNL A   1      59.160  40.060  18.736  1.00  0.00    +0.000 H 
BRANCH    5    6
ATOM      6  C4  UNL A   1      57.170  40.307  18.102  1.00  0.00    +0.000 C 
ATOM    111  H6  UNL A   1      56.408  39.598  18.353  1.00  0.00    +0.000 H 
ATOM    112  H7  UNL A   1      57.684  40.073  17.194  1.00  0.00    +0.000 H 
BRANCH    6    7
ATOM    113  H8  UNL A   1      57.269  42.408  17.809  1.00  0.00    +0.000 H 
ATOM    114  H9  UNL A   1      55.838  41.811  18.705  1.00  0.00    +0.000 H 
ATOM      7  C5  UNL A   1      56.500  41.666  17.877  1.00  0.00    +0.000 C 
BRANCH    7    8
ATOM    115  H10 UNL A   1      56.247  41.560  15.765  1.00  0.00    +0.000 H 
ATOM    116  H11 UNL A   1      55.224  42.757  16.595  1.00  0.00    +0.000 H 
ATOM      8  C6  UNL A   1      55.631  41.767  16.615  1.00  0.00    +0.000 C 
BRANCH    8    9
ATOM      9  C7  UNL A   1      54.447  40.800  16.601  1.00  0.00    +0.000 C 
ATOM    117  H12 UNL A   1      53.917  40.879  17.527  1.00  0.00    +0.000 H 
ATOM    118  H13 UNL A   1      54.818  39.805  16.469  1.00  0.00    +0.000 H 
BRANCH    9   10
ATOM     10  N2  UNL A   1      53.546  41.110  15.511  1.00  0.00    +0.000 N 
ATOM    119  H14 UNL A   1      53.384  42.065  15.341  1.00  0.00    +0.000 H 
BRANCH   10   11
ATOM     11  C8  UNL A   1      52.895  40.236  14.692  1.00  0.00    +0.000 C 
ATOM     12  O2  UNL A   1      53.275  39.063  14.677  1.00  0.00    +0.000 O 
BRANCH   11   13
ATOM     13  C9  UNL A   1      51.727  40.699  13.809  1.00  0.00    +0.000 C 
ATOM    120  H15 UNL A   1      51.175  41.428  14.366  1.00  0.00    +0.000 H 
BRANCH   13   14
ATOM    121  H16 UNL A   1      50.156  39.361  14.391  1.00  0.00    +0.000 H 
ATOM    122  H17 UNL A   1      51.302  38.676  13.255  1.00  0.00    +0.000 H 
ATOM     14  C10 UNL A   1      50.746  39.552  13.518  1.00  0.00    +0.000 C 
BRANCH   14   15
ATOM    123  H18 UNL A   1      49.070  40.299  12.780  1.00  0.00    +0.000 H 
ATOM     15  O3  UNL A   1      49.884  39.903  12.431  1.00  0.00    +0.000 O 
ENDBRANCH   14   15
ENDBRANCH   13   14
BRANCH   13   16
ATOM    124  H19 UNL A   1      51.550  42.039  12.235  1.00  0.00    +0.000 H 
ATOM     16  N3  UNL A   1      52.187  41.385  12.602  1.00  0.00    +0.000 N 
BRANCH   16   17
ATOM     17  C11 UNL A   1      53.348  41.271  11.901  1.00  0.00    +0.000 C 
ATOM     18  O4  UNL A   1      54.201  42.118  12.196  1.00  0.00    +0.000 O 
BRANCH   17   19
ATOM     19  C12 UNL A   1      53.717  40.045  11.017  1.00  0.00    +0.000 C 
ATOM    125  H20 UNL A   1      52.883  39.382  11.124  1.00  0.00    +0.000 H 
BRANCH   19   20
ATOM     20  C13 UNL A   1      55.034  39.415  11.539  1.00  0.00    +0.000 C 
ATOM    126  H21 UNL A   1      55.165  39.708  12.559  1.00  0.00    +0.000 H 
ATOM    127  H22 UNL A   1      55.819  39.770  10.905  1.00  0.00    +0.000 H 
BRANCH   20   21
ATOM     21  S1  UNL A   1      55.069  37.589  11.453  1.00  0.00    +0.000 S 
ATOM    128  H23 UNL A   1      54.438  37.072  12.542  1.00  0.00    +0.000 H 
ENDBRANCH   20   21
ENDBRANCH   19   20
BRANCH   19   22
ATOM    129  H24 UNL A   1      54.493  39.717   9.142  1.00  0.00    +0.000 H 
ATOM     22  N4  UNL A   1      53.782  40.250   9.565  1.00  0.00    +0.000 N 
BRANCH   22   23
ATOM     23  C14 UNL A   1      53.092  41.002   8.668  1.00  0.00    +0.000 C 
ATOM     24  O5  UNL A   1      51.989  40.515   8.408  1.00  0.00    +0.000 O 
BRANCH   23   25
ATOM     25  C15 UNL A   1      53.511  42.400   8.128  1.00  0.00    +0.000 C 
ATOM    130  H25 UNL A   1      52.665  42.771   7.588  1.00  0.00    +0.000 H 
BRANCH   25   26
ATOM     26  C16 UNL A   1      54.745  42.327   7.174  1.00  0.00    +0.000 C 
ATOM    131  H26 UNL A   1      54.539  41.532   6.488  1.00  0.00    +0.000 H 
ATOM    132  H27 UNL A   1      55.548  42.237   7.875  1.00  0.00    +0.000 H 
BRANCH   26   27
ATOM    133  H28 UNL A   1      57.004  43.921   7.353  1.00  0.00    +0.000 H 
ATOM    134  H29 UNL A   1      57.514  45.962   6.167  1.00  0.00    +0.000 H 
ATOM    135  H30 UNL A   1      56.013  46.785   4.451  1.00  0.00    +0.000 H 
ATOM    136  H31 UNL A   1      54.020  45.518   3.897  1.00  0.00    +0.000 H 
ATOM    137  H32 UNL A   1      53.516  43.463   5.070  1.00  0.00    +0.000 H 
ATOM     27  C17 UNL A   1      55.215  43.500   6.327  1.00  0.00    +0.000 C 
ATOM     28  C18 UNL A   1      56.361  44.251   6.617  1.00  0.00    +0.000 C 
ATOM     29  C19 UNL A   1      56.657  45.435   5.935  1.00  0.00    +0.000 C 
ATOM     30  C20 UNL A   1      55.802  45.906   4.948  1.00  0.00    +0.000 C 
ATOM     31  C21 UNL A   1      54.658  45.180   4.634  1.00  0.00    +0.000 C 
ATOM     32  C22 UNL A   1      54.368  43.991   5.316  1.00  0.00    +0.000 C 
ENDBRANCH   26   27
ENDBRANCH   25   26
BRANCH   25   33
ATOM     33  N5  UNL A   1      53.879  43.294   9.239  1.00  0.00    +0.000 N 
ATOM    138  H33 UNL A   1      54.255  42.821  10.016  1.00  0.00    +0.000 H 
BRANCH   33   34
ATOM     34  C23 UNL A   1      53.803  44.651   9.410  1.00  0.00    +0.000 C 
ATOM     35  O6  UNL A   1      54.327  45.120  10.419  1.00  0.00    +0.000 O 
BRANCH   34   36
ATOM     36  C24 UNL A   1      53.069  45.566   8.494  1.00  0.00    +0.000 C 
ATOM     37  C25 UNL A   1      51.769  45.184   8.116  1.00  0.00    +0.000 C 
ATOM     38  C26 UNL A   1      51.056  45.918   7.164  1.00  0.00    +0.000 C 
ATOM     39  C27 UNL A   1      51.644  47.032   6.582  1.00  0.00    +0.000 C 
ATOM     40  F1  UNL A   1      50.973  47.727   5.655  1.00  0.00    +0.000 F 
ATOM     41  C28 UNL A   1      52.930  47.423   6.933  1.00  0.00    +0.000 C 
ATOM     42  C29 UNL A   1      53.646  46.686   7.883  1.00  0.00    +0.000 C 
ATOM    139  H34 UNL A   1      51.336  44.353   8.547  1.00  0.00    +0.000 H 
ATOM    140  H35 UNL A   1      50.101  45.634   6.896  1.00  0.00    +0.000 H 
ATOM    141  H36 UNL A   1      53.357  48.253   6.493  1.00  0.00    +0.000 H 
ATOM    142  H37 UNL A   1      54.605  46.970   8.135  1.00  0.00    +0.000 H 
ENDBRANCH   34   36
ENDBRANCH   33   34
ENDBRANCH   25   33
ENDBRANCH   23   25
ENDBRANCH   22   23
ENDBRANCH   19   22
ENDBRANCH   17   19
ENDBRANCH   16   17
ENDBRANCH   13   16
ENDBRANCH   11   13
ENDBRANCH   10   11
ENDBRANCH    9   10
ENDBRANCH    8    9
ENDBRANCH    7    8
ENDBRANCH    6    7
ENDBRANCH    5    6
ENDBRANCH    4    5
ENDBRANCH    3    4
ENDBRANCH    2    3
ENDBRANCH   43    2
ENDBRANCH   47   46
BRANCH   51   52
ATOM     52  C38 UNL A   1      47.078  43.089  23.936  1.00  0.00    +0.000 C 
ATOM     53  C39 UNL A   1      46.635  41.772  24.121  1.00  0.00    +0.000 C 
ATOM     54  F2  UNL A   1      46.612  40.916  23.089  1.00  0.00    +0.000 F 
ATOM     55  C40 UNL A   1      46.185  41.336  25.365  1.00  0.00    +0.000 C 
ATOM     56  F3  UNL A   1      45.732  40.083  25.511  1.00  0.00    +0.000 F 
ATOM     57  C41 UNL A   1      46.193  42.199  26.451  1.00  0.00    +0.000 C 
ATOM     58  F4  UNL A   1      45.766  41.776  27.649  1.00  0.00    +0.000 F 
ATOM     59  C42 UNL A   1      46.639  43.503  26.294  1.00  0.00    +0.000 C 
ATOM     60  F5  UNL A   1      46.657  44.335  27.344  1.00  0.00    +0.000 F 
ATOM     61  C43 UNL A   1      47.070  43.948  25.046  1.00  0.00    +0.000 C 
ATOM     62  F6  UNL A   1      47.487  45.217  24.923  1.00  0.00    +0.000 F 
ENDBRANCH   51   52
BRANCH   68   69
ATOM     69  C49 UNL A   1      44.603  46.546  18.113  1.00  0.00    +0.000 C 
ATOM     70  C50 UNL A   1      44.260  47.863  18.454  1.00  0.00    +0.000 C 
ATOM     71  F7  UNL A   1      45.066  48.587  19.245  1.00  0.00    +0.000 F 
ATOM     72  C51 UNL A   1      43.064  48.425  18.015  1.00  0.00    +0.000 C 
ATOM     73  F8  UNL A   1      42.734  49.669  18.389  1.00  0.00    +0.000 F 
ATOM     74  C52 UNL A   1      42.207  47.693  17.208  1.00  0.00    +0.000 C 
ATOM     75  F9  UNL A   1      41.056  48.235  16.787  1.00  0.00    +0.000 F 
ATOM     76  C53 UNL A   1      42.536  46.396  16.844  1.00  0.00    +0.000 C 
ATOM     77  F10 UNL A   1      41.711  45.691  16.058  1.00  0.00    +0.000 F 
ATOM     78  C54 UNL A   1      43.719  45.823  17.300  1.00  0.00    +0.000 C 
ATOM     79  F11 UNL A   1      44.007  44.561  16.946  1.00  0.00    +0.000 F 
ENDBRANCH   68   69
BRANCH   83   84
ATOM     84  C58 UNL A   1      50.861  45.920  15.135  1.00  0.00    +0.000 C 
ATOM     85  C59 UNL A   1      50.867  45.049  14.037  1.00  0.00    +0.000 C 
ATOM     86  F12 UNL A   1      50.400  43.799  14.171  1.00  0.00    +0.000 F 
ATOM     87  C60 UNL A   1      51.377  45.452  12.805  1.00  0.00    +0.000 C 
ATOM     88  F13 UNL A   1      51.399  44.591  11.779  1.00  0.00    +0.000 F 
ATOM     89  C61 UNL A   1      51.867  46.740  12.642  1.00  0.00    +0.000 C 
ATOM     90  F14 UNL A   1      52.346  47.130  11.453  1.00  0.00    +0.000 F 
ATOM     91  C62 UNL A   1      51.863  47.620  13.713  1.00  0.00    +0.000 C 
ATOM     92  F15 UNL A   1      52.321  48.870  13.555  1.00  0.00    +0.000 F 
ATOM     93  C63 UNL A   1      51.378  47.210  14.951  1.00  0.00    +0.000 C 
ATOM     94  F16 UNL A   1      51.387  48.081  15.972  1.00  0.00    +0.000 F 
ENDBRANCH   83   84
TORSDOF 30
ENDMDL
MODEL 10
REMARK VINA RESULT:      -8.0     37.666     42.408
ROOT
ATOM    145  H40 UNL A   1      43.289  31.343  27.684  1.00  0.00    +0.000 H 
ATOM    146  H41 UNL A   1      43.781  28.784  27.582  1.00  0.00    +0.000 H 
ATOM    147  H42 UNL A   1      47.314  30.818  26.859  1.00  0.00    +0.000 H 
ATOM    148  H43 UNL A   1      53.520  30.711  25.401  1.00  0.00    +0.000 H 
ATOM    149  H44 UNL A   1      53.076  33.197  25.670  1.00  0.00    +0.000 H 
ATOM    150  H45 UNL A   1      49.507  31.189  26.381  1.00  0.00    +0.000 H 
ATOM    151  H46 UNL A   1      50.597  26.299  26.053  1.00  0.00    +0.000 H 
ATOM    152  H47 UNL A   1      48.114  25.855  26.494  1.00  0.00    +0.000 H 
ATOM    153  H48 UNL A   1      46.361  35.730  27.239  1.00  0.00    +0.000 H 
ATOM    154  H49 UNL A   1      48.781  36.205  26.546  1.00  0.00    +0.000 H 
ATOM     47  C34 UNL A   1      50.357  33.852  26.205  1.00  0.00    +0.000 C 
ATOM     48  C35 UNL A   1      48.897  33.941  26.537  1.00  0.00    +0.000 C 
ATOM     49  N6  UNL A   1      48.037  32.972  26.729  1.00  0.00    +0.000 N 
ATOM     50  C36 UNL A   1      46.830  33.588  27.031  1.00  0.00    +0.000 C 
ATOM     51  C37 UNL A   1      45.632  33.012  27.291  1.00  0.00    +0.000 C 
ATOM     63  C44 UNL A   1      45.395  31.591  27.287  1.00  0.00    +0.000 C 
ATOM     64  C45 UNL A   1      44.209  30.912  27.503  1.00  0.00    +0.000 C 
ATOM     65  C46 UNL A   1      44.470  29.538  27.436  1.00  0.00    +0.000 C 
ATOM     66  C47 UNL A   1      45.812  29.362  27.140  1.00  0.00    +0.000 C 
ATOM     67  N7  UNL A   1      46.368  30.629  27.054  1.00  0.00    +0.000 N 
ATOM     68  C48 UNL A   1      46.534  28.131  26.949  1.00  0.00    +0.000 C 
ATOM     80  C55 UNL A   1      47.850  28.036  26.637  1.00  0.00    +0.000 C 
ATOM     81  N8  UNL A   1      48.774  29.051  26.448  1.00  0.00    +0.000 N 
ATOM     82  C56 UNL A   1      49.913  28.456  26.192  1.00  0.00    +0.000 C 
ATOM     83  C57 UNL A   1      51.253  29.065  25.901  1.00  0.00    +0.000 C 
ATOM     95  C64 UNL A   1      51.378  30.404  25.910  1.00  0.00    +0.000 C 
ATOM     96  C65 UNL A   1      52.612  31.136  25.645  1.00  0.00    +0.000 C 
ATOM     97  C66 UNL A   1      52.373  32.449  25.771  1.00  0.00    +0.000 C 
ATOM     98  C67 UNL A   1      50.955  32.652  26.074  1.00  0.00    +0.000 C 
ATOM     99  N9  UNL A   1      50.447  31.382  26.160  1.00  0.00    +0.000 N 
ATOM    100  C68 UNL A   1      49.843  26.989  26.200  1.00  0.00    +0.000 C 
ATOM    101  C69 UNL A   1      48.556  26.786  26.446  1.00  0.00    +0.000 C 
ATOM    102  C70 UNL A   1      47.072  35.016  27.016  1.00  0.00    +0.000 C 
ATOM    103  C71 UNL A   1      48.326  35.287  26.677  1.00  0.00    +0.000 C 
ENDROOT
BRANCH   47   46
ATOM    104  C72 UNL A   1      51.915  35.647  27.031  1.00  0.00    +0.000 C 
ATOM    105  C73 UNL A   1      52.701  36.778  26.794  1.00  0.00    +0.000 C 
ATOM     43  C30 UNL A   1      52.776  37.312  25.505  1.00  0.00    +0.000 C 
ATOM     44  C31 UNL A   1      52.099  36.697  24.447  1.00  0.00    +0.000 C 
ATOM     45  C32 UNL A   1      51.260  35.618  24.698  1.00  0.00    +0.000 C 
ATOM     46  C33 UNL A   1      51.173  35.072  25.988  1.00  0.00    +0.000 C 
ATOM    143  H38 UNL A   1      52.221  37.044  23.483  1.00  0.00    +0.000 H 
ATOM    144  H39 UNL A   1      50.698  35.215  23.931  1.00  0.00    +0.000 H 
ATOM    155  H50 UNL A   1      51.880  35.233  27.976  1.00  0.00    +0.000 H 
ATOM    156  H51 UNL A   1      53.224  37.216  27.568  1.00  0.00    +0.000 H 
BRANCH   43    2
ATOM      1  O1  UNL A   1      53.936  38.824  24.136  1.00  0.00    +0.000 O 
ATOM      2  C1  UNL A   1      53.590  38.525  25.274  1.00  0.00    +0.000 C 
BRANCH    2    3
ATOM    106  H1  UNL A   1      54.333  38.820  27.115  1.00  0.00    +0.000 H 
ATOM      3  N1  UNL A   1      53.962  39.303  26.341  1.00  0.00    +0.000 N 
BRANCH    3    4
ATOM    108  H3  UNL A   1      54.369  41.024  27.383  1.00  0.00    +0.000 H 
ATOM    107  H2  UNL A   1      54.343  41.202  25.627  1.00  0.00    +0.000 H 
ATOM      4  C2  UNL A   1      53.876  40.747  26.475  1.00  0.00    +0.000 C 
BRANCH    4    5
ATOM    109  H4  UNL A   1      52.305  41.745  27.484  1.00  0.00    +0.000 H 
ATOM      5  C3  UNL A   1      52.434  41.226  26.557  1.00  0.00    +0.000 C 
ATOM    110  H5  UNL A   1      51.817  40.355  26.480  1.00  0.00    +0.000 H 
BRANCH    5    6
ATOM      6  C4  UNL A   1      52.016  42.161  25.421  1.00  0.00    +0.000 C 
ATOM    111  H6  UNL A   1      52.901  42.483  24.914  1.00  0.00    +0.000 H 
ATOM    112  H7  UNL A   1      51.473  42.961  25.878  1.00  0.00    +0.000 H 
BRANCH    6    7
ATOM    113  H8  UNL A   1      50.504  40.775  24.869  1.00  0.00    +0.000 H 
ATOM    114  H9  UNL A   1      51.697  41.176  23.596  1.00  0.00    +0.000 H 
ATOM      7  C5  UNL A   1      51.073  41.541  24.384  1.00  0.00    +0.000 C 
BRANCH    7    8
ATOM    115  H10 UNL A   1      49.947  43.350  24.389  1.00  0.00    +0.000 H 
ATOM    116  H11 UNL A   1      49.182  41.978  23.552  1.00  0.00    +0.000 H 
ATOM      8  C6  UNL A   1      50.087  42.520  23.728  1.00  0.00    +0.000 C 
BRANCH    8    9
ATOM      9  C7  UNL A   1      50.556  43.054  22.374  1.00  0.00    +0.000 C 
ATOM    117  H12 UNL A   1      51.563  42.737  22.202  1.00  0.00    +0.000 H 
ATOM    118  H13 UNL A   1      50.499  44.122  22.388  1.00  0.00    +0.000 H 
BRANCH    9   10
ATOM     10  N2  UNL A   1      49.713  42.556  21.308  1.00  0.00    +0.000 N 
ATOM    119  H14 UNL A   1      50.178  42.162  20.536  1.00  0.00    +0.000 H 
BRANCH   10   11
ATOM     11  C8  UNL A   1      48.351  42.568  21.246  1.00  0.00    +0.000 C 
ATOM     12  O2  UNL A   1      47.759  41.490  21.323  1.00  0.00    +0.000 O 
BRANCH   11   13
ATOM     13  C9  UNL A   1      47.578  43.884  21.080  1.00  0.00    +0.000 C 
ATOM    120  H15 UNL A   1      48.105  44.476  20.361  1.00  0.00    +0.000 H 
BRANCH   13   14
ATOM    121  H16 UNL A   1      48.430  44.456  22.962  1.00  0.00    +0.000 H 
ATOM    122  H17 UNL A   1      46.677  44.470  22.930  1.00  0.00    +0.000 H 
ATOM     14  C10 UNL A   1      47.565  44.703  22.381  1.00  0.00    +0.000 C 
BRANCH   14   15
ATOM    123  H18 UNL A   1      46.701  46.477  22.256  1.00  0.00    +0.000 H 
ATOM     15  O3  UNL A   1      47.579  46.103  22.084  1.00  0.00    +0.000 O 
ENDBRANCH   14   15
ENDBRANCH   13   14
BRANCH   13   16
ATOM    124  H19 UNL A   1      46.237  43.276  19.617  1.00  0.00    +0.000 H 
ATOM     16  N3  UNL A   1      46.244  43.672  20.519  1.00  0.00    +0.000 N 
BRANCH   16   17
ATOM     17  C11 UNL A   1      45.010  43.929  21.032  1.00  0.00    +0.000 C 
ATOM     18  O4  UNL A   1      44.374  44.790  20.410  1.00  0.00    +0.000 O 
BRANCH   17   19
ATOM     19  C12 UNL A   1      44.314  43.052  22.112  1.00  0.00    +0.000 C 
ATOM    125  H20 UNL A   1      44.997  42.245  22.277  1.00  0.00    +0.000 H 
BRANCH   19   20
ATOM     20  C13 UNL A   1      42.949  42.558  21.570  1.00  0.00    +0.000 C 
ATOM    126  H21 UNL A   1      43.084  41.577  21.163  1.00  0.00    +0.000 H 
ATOM    127  H22 UNL A   1      42.633  43.267  20.833  1.00  0.00    +0.000 H 
BRANCH   20   21
ATOM     21  S1  UNL A   1      41.629  42.482  22.833  1.00  0.00    +0.000 S 
ATOM    128  H23 UNL A   1      41.978  43.252  23.899  1.00  0.00    +0.000 H 
ENDBRANCH   20   21
ENDBRANCH   19   20
BRANCH   19   22
ATOM    129  H24 UNL A   1      43.369  44.205  23.528  1.00  0.00    +0.000 H 
ATOM     22  N4  UNL A   1      44.160  43.624  23.455  1.00  0.00    +0.000 N 
BRANCH   22   23
ATOM     23  C14 UNL A   1      44.853  43.541  24.620  1.00  0.00    +0.000 C 
ATOM     24  O5  UNL A   1      44.972  44.640  25.167  1.00  0.00    +0.000 O 
BRANCH   23   25
ATOM     25  C15 UNL A   1      45.319  42.230  25.320  1.00  0.00    +0.000 C 
ATOM    130  H25 UNL A   1      45.585  42.510  26.318  1.00  0.00    +0.000 H 
BRANCH   25   26
ATOM     26  C16 UNL A   1      46.552  41.583  24.615  1.00  0.00    +0.000 C 
ATOM    131  H26 UNL A   1      47.189  42.395  24.334  1.00  0.00    +0.000 H 
ATOM    132  H27 UNL A   1      46.077  40.987  23.865  1.00  0.00    +0.000 H 
BRANCH   26   27
ATOM    133  H28 UNL A   1      47.716  41.542  27.129  1.00  0.00    +0.000 H 
ATOM    134  H29 UNL A   1      49.390  40.032  27.997  1.00  0.00    +0.000 H 
ATOM    135  H30 UNL A   1      50.155  38.160  26.664  1.00  0.00    +0.000 H 
ATOM    136  H31 UNL A   1      49.193  37.781  24.470  1.00  0.00    +0.000 H 
ATOM    137  H32 UNL A   1      47.503  39.281  23.604  1.00  0.00    +0.000 H 
ATOM     27  C17 UNL A   1      47.452  40.557  25.287  1.00  0.00    +0.000 C 
ATOM     28  C18 UNL A   1      48.023  40.743  26.553  1.00  0.00    +0.000 C 
ATOM     29  C19 UNL A   1      48.995  39.873  27.057  1.00  0.00    +0.000 C 
ATOM     30  C20 UNL A   1      49.431  38.797  26.298  1.00  0.00    +0.000 C 
ATOM     31  C21 UNL A   1      48.880  38.583  25.038  1.00  0.00    +0.000 C 
ATOM     32  C22 UNL A   1      47.902  39.453  24.539  1.00  0.00    +0.000 C 
ENDBRANCH   26   27
ENDBRANCH   25   26
BRANCH   25   33
ATOM     33  N5  UNL A   1      44.240  41.227  25.308  1.00  0.00    +0.000 N 
ATOM    138  H33 UNL A   1      44.060  40.856  24.415  1.00  0.00    +0.000 H 
BRANCH   33   34
ATOM     34  C23 UNL A   1      43.438  40.708  26.289  1.00  0.00    +0.000 C 
ATOM     35  O6  UNL A   1      42.249  41.026  26.270  1.00  0.00    +0.000 O 
BRANCH   34   36
ATOM     36  C24 UNL A   1      43.932  39.854  27.404  1.00  0.00    +0.000 C 
ATOM     37  C25 UNL A   1      44.925  38.909  27.093  1.00  0.00    +0.000 C 
ATOM     38  C26 UNL A   1      45.356  37.983  28.047  1.00  0.00    +0.000 C 
ATOM     39  C27 UNL A   1      44.790  37.997  29.314  1.00  0.00    +0.000 C 
ATOM     40  F1  UNL A   1      45.185  37.100  30.226  1.00  0.00    +0.000 F 
ATOM     41  C28 UNL A   1      43.801  38.916  29.641  1.00  0.00    +0.000 C 
ATOM     42  C29 UNL A   1      43.366  39.839  28.684  1.00  0.00    +0.000 C 
ATOM    139  H34 UNL A   1      45.341  38.898  26.149  1.00  0.00    +0.000 H 
ATOM    140  H35 UNL A   1      46.089  37.296  27.812  1.00  0.00    +0.000 H 
ATOM    141  H36 UNL A   1      43.388  38.916  30.587  1.00  0.00    +0.000 H 
ATOM    142  H37 UNL A   1      42.624  40.514  28.924  1.00  0.00    +0.000 H 
ENDBRANCH   34   36
ENDBRANCH   33   34
ENDBRANCH   25   33
ENDBRANCH   23   25
ENDBRANCH   22   23
ENDBRANCH   19   22
ENDBRANCH   17   19
ENDBRANCH   16   17
ENDBRANCH   13   16
ENDBRANCH   11   13
ENDBRANCH   10   11
ENDBRANCH    9   10
ENDBRANCH    8    9
ENDBRANCH    7    8
ENDBRANCH    6    7
ENDBRANCH    5    6
ENDBRANCH    4    5
ENDBRANCH    3    4
ENDBRANCH    2    3
ENDBRANCH   43    2
ENDBRANCH   47   46
BRANCH   51   52
ATOM     52  C38 UNL A   1      44.481  33.917  27.616  1.00  0.00    +0.000 C 
ATOM     53  C39 UNL A   1      44.040  34.099  28.934  1.00  0.00    +0.000 C 
ATOM     54  F2  UNL A   1      44.607  33.413  29.938  1.00  0.00    +0.000 F 
ATOM     55  C40 UNL A   1      42.990  34.968  29.224  1.00  0.00    +0.000 C 
ATOM     56  F3  UNL A   1      42.561  35.100  30.487  1.00  0.00    +0.000 F 
ATOM     57  C41 UNL A   1      42.381  35.689  28.209  1.00  0.00    +0.000 C 
ATOM     58  F4  UNL A   1      41.376  36.529  28.491  1.00  0.00    +0.000 F 
ATOM     59  C42 UNL A   1      42.810  35.534  26.899  1.00  0.00    +0.000 C 
ATOM     60  F5  UNL A   1      42.229  36.237  25.917  1.00  0.00    +0.000 F 
ATOM     61  C43 UNL A   1      43.845  34.650  26.603  1.00  0.00    +0.000 C 
ATOM     62  F6  UNL A   1      44.232  34.515  25.325  1.00  0.00    +0.000 F 
ENDBRANCH   51   52
BRANCH   68   69
ATOM     69  C49 UNL A   1      45.778  26.844  27.086  1.00  0.00    +0.000 C 
ATOM     70  C50 UNL A   1      45.650  26.203  28.327  1.00  0.00    +0.000 C 
ATOM     71  F7  UNL A   1      46.239  26.717  29.417  1.00  0.00    +0.000 F 
ATOM     72  C51 UNL A   1      44.949  25.005  28.441  1.00  0.00    +0.000 C 
ATOM     73  F8  UNL A   1      44.876  24.384  29.626  1.00  0.00    +0.000 F 
ATOM     74  C52 UNL A   1      44.343  24.445  27.327  1.00  0.00    +0.000 C 
ATOM     75  F9  UNL A   1      43.669  23.292  27.439  1.00  0.00    +0.000 F 
ATOM     76  C53 UNL A   1      44.441  25.074  26.095  1.00  0.00    +0.000 C 
ATOM     77  F10 UNL A   1      43.849  24.537  25.019  1.00  0.00    +0.000 F 
ATOM     78  C54 UNL A   1      45.161  26.259  25.972  1.00  0.00    +0.000 C 
ATOM     79  F11 UNL A   1      45.254  26.839  24.766  1.00  0.00    +0.000 F 
ENDBRANCH   68   69
BRANCH   83   84
ATOM     84  C58 UNL A   1      52.435  28.221  25.596  1.00  0.00    +0.000 C 
ATOM     85  C59 UNL A   1      52.704  27.808  24.284  1.00  0.00    +0.000 C 
ATOM     86  F12 UNL A   1      51.863  28.135  23.293  1.00  0.00    +0.000 F 
ATOM     87  C60 UNL A   1      53.825  27.034  23.992  1.00  0.00    +0.000 C 
ATOM     88  F13 UNL A   1      54.044  26.626  22.735  1.00  0.00    +0.000 F 
ATOM     89  C61 UNL A   1      54.710  26.681  25.001  1.00  0.00    +0.000 C 
ATOM     90  F14 UNL A   1      55.794  25.948  24.717  1.00  0.00    +0.000 F 
ATOM     91  C62 UNL A   1      54.467  27.087  26.304  1.00  0.00    +0.000 C 
ATOM     92  F15 UNL A   1      55.327  26.761  27.279  1.00  0.00    +0.000 F 
ATOM     93  C63 UNL A   1      53.333  27.838  26.602  1.00  0.00    +0.000 C 
ATOM     94  F16 UNL A   1      53.120  28.215  27.872  1.00  0.00    +0.000 F 
ENDBRANCH   83   84
TORSDOF 30
ENDMDL
