MODEL 1
REMARK VINA RESULT:      -8.7      0.000      0.000
ROOT
ATOM    166  H62 UNL A   1      50.086  57.036  16.249  1.00  0.00    +0.000 H 
ATOM    167  H63 UNL A   1      52.074  56.880  17.928  1.00  0.00    +0.000 H 
ATOM    168  H64 UNL A   1      49.730  53.502  18.386  1.00  0.00    +0.000 H 
ATOM    169  H65 UNL A   1      48.531  48.023  21.521  1.00  0.00    +0.000 H 
ATOM    170  H66 UNL A   1      46.564  48.223  19.923  1.00  0.00    +0.000 H 
ATOM    171  H67 UNL A   1      49.005  51.538  19.353  1.00  0.00    +0.000 H 
ATOM    172  H68 UNL A   1      52.798  51.142  22.554  1.00  0.00    +0.000 H 
ATOM    173  H69 UNL A   1      53.515  53.461  21.744  1.00  0.00    +0.000 H 
ATOM     46  C41 UNL A   1      46.573  50.614  18.363  1.00  0.00    +0.000 C 
ATOM     47  C42 UNL A   1      46.824  51.880  17.586  1.00  0.00    +0.000 C 
ATOM     48  N3  UNL A   1      47.865  52.670  17.597  1.00  0.00    +0.000 N 
ATOM    175  H71 UNL A   1      44.839  51.890  16.481  1.00  0.00    +0.000 H 
ATOM     49  C43 UNL A   1      47.619  53.616  16.610  1.00  0.00    +0.000 C 
ATOM    174  H70 UNL A   1      46.032  53.682  15.086  1.00  0.00    +0.000 H 
ATOM     50  C44 UNL A   1      48.328  54.729  16.317  1.00  0.00    +0.000 C 
ATOM     62  C51 UNL A   1      49.502  55.118  17.044  1.00  0.00    +0.000 C 
ATOM     63  C52 UNL A   1      50.264  56.262  16.908  1.00  0.00    +0.000 C 
ATOM     64  C53 UNL A   1      51.319  56.184  17.821  1.00  0.00    +0.000 C 
ATOM     65  C54 UNL A   1      51.185  55.018  18.561  1.00  0.00    +0.000 C 
ATOM     66  N4  UNL A   1      50.070  54.368  18.064  1.00  0.00    +0.000 N 
ATOM     67  C55 UNL A   1      52.012  54.538  19.638  1.00  0.00    +0.000 C 
ATOM     79  C62 UNL A   1      51.839  53.378  20.319  1.00  0.00    +0.000 C 
ATOM     80  N5  UNL A   1      50.859  52.407  20.170  1.00  0.00    +0.000 N 
ATOM     81  C63 UNL A   1      51.135  51.473  21.049  1.00  0.00    +0.000 C 
ATOM     82  C64 UNL A   1      50.387  50.200  21.354  1.00  0.00    +0.000 C 
ATOM     94  C71 UNL A   1      49.248  49.954  20.681  1.00  0.00    +0.000 C 
ATOM     95  C72 UNL A   1      48.373  48.798  20.858  1.00  0.00    +0.000 C 
ATOM     96  C73 UNL A   1      47.329  48.908  20.020  1.00  0.00    +0.000 C 
ATOM     97  C74 UNL A   1      47.453  50.158  19.269  1.00  0.00    +0.000 C 
ATOM     98  N6  UNL A   1      48.633  50.696  19.705  1.00  0.00    +0.000 N 
ATOM     99  C75 UNL A   1      52.347  51.732  21.836  1.00  0.00    +0.000 C 
ATOM    100  C76 UNL A   1      52.711  52.924  21.383  1.00  0.00    +0.000 C 
ATOM    101  C77 UNL A   1      46.391  53.248  15.951  1.00  0.00    +0.000 C 
ATOM    102  C78 UNL A   1      45.788  52.275  16.612  1.00  0.00    +0.000 C 
ENDROOT
BRANCH   46   45
ATOM    164  H60 UNL A   1      42.038  49.733  18.563  1.00  0.00    +0.000 H 
ATOM    165  H61 UNL A   1      44.050  50.844  19.375  1.00  0.00    +0.000 H 
ATOM    103  C79 UNL A   1      45.454  48.884  17.021  1.00  0.00    +0.000 C 
ATOM    104  C80 UNL A   1      44.303  48.359  16.476  1.00  0.00    +0.000 C 
ATOM     42  C37 UNL A   1      43.064  48.661  17.055  1.00  0.00    +0.000 C 
ATOM     43  C38 UNL A   1      42.955  49.541  18.129  1.00  0.00    +0.000 C 
ATOM     44  C39 UNL A   1      44.110  50.157  18.606  1.00  0.00    +0.000 C 
ATOM     45  C40 UNL A   1      45.357  49.841  18.041  1.00  0.00    +0.000 C 
ATOM    176  H72 UNL A   1      46.378  48.577  16.682  1.00  0.00    +0.000 H 
ATOM    177  H73 UNL A   1      44.353  47.746  15.647  1.00  0.00    +0.000 H 
BRANCH   42   40
ATOM     41  O3  UNL A   1      41.175  48.232  15.700  1.00  0.00    +0.000 O 
ATOM     40  C36 UNL A   1      41.892  47.880  16.598  1.00  0.00    +0.000 C 
BRANCH   40   39
ATOM    163  H59 UNL A   1      41.545  46.723  18.269  1.00  0.00    +0.000 H 
ATOM     39  N2  UNL A   1      41.703  46.702  17.298  1.00  0.00    +0.000 N 
BRANCH   39   38
ATOM    161  H57 UNL A   1      41.132  45.497  15.711  1.00  0.00    +0.000 H 
ATOM    162  H58 UNL A   1      42.738  45.201  16.295  1.00  0.00    +0.000 H 
ATOM     38  C35 UNL A   1      41.738  45.439  16.591  1.00  0.00    +0.000 C 
BRANCH   38   37
ATOM     37  C34 UNL A   1      41.195  44.381  17.519  1.00  0.00    +0.000 C 
ATOM    159  H55 UNL A   1      40.461  44.831  18.153  1.00  0.00    +0.000 H 
ATOM    160  H56 UNL A   1      40.783  43.607  16.905  1.00  0.00    +0.000 H 
BRANCH   37   36
ATOM     36  C33 UNL A   1      42.297  43.710  18.429  1.00  0.00    +0.000 C 
ATOM    157  H53 UNL A   1      42.782  42.984  17.810  1.00  0.00    +0.000 H 
ATOM    158  H54 UNL A   1      42.822  44.574  18.779  1.00  0.00    +0.000 H 
BRANCH   36   35
ATOM     35  C32 UNL A   1      41.975  42.933  19.869  1.00  0.00    +0.000 C 
ATOM    156  H52 UNL A   1      42.886  42.370  19.879  1.00  0.00    +0.000 H 
ATOM    155  H51 UNL A   1      40.956  42.628  19.754  1.00  0.00    +0.000 H 
BRANCH   35   34
ATOM    153  H49 UNL A   1      43.105  43.597  21.768  1.00  0.00    +0.000 H 
ATOM     34  C31 UNL A   1      42.059  43.411  21.644  1.00  0.00    +0.000 C 
ATOM    154  H50 UNL A   1      41.170  44.003  21.583  1.00  0.00    +0.000 H 
BRANCH   34   33
ATOM     33  C30 UNL A   1      41.541  42.635  23.528  1.00  0.00    +0.000 C 
ATOM    151  H47 UNL A   1      41.833  43.428  24.184  1.00  0.00    +0.000 H 
ATOM    152  H48 UNL A   1      40.606  42.245  23.183  1.00  0.00    +0.000 H 
BRANCH   33   32
ATOM    150  H46 UNL A   1      41.874  40.575  23.834  1.00  0.00    +0.000 H 
ATOM     32  N1  UNL A   1      41.851  41.403  24.365  1.00  0.00    +0.000 N 
BRANCH   32   30
ATOM     30  C29 UNL A   1      42.102  41.191  25.682  1.00  0.00    +0.000 C 
ATOM     31  O2  UNL A   1      41.094  41.087  26.393  1.00  0.00    +0.000 O 
BRANCH   30   29
ATOM    149  H45 UNL A   1      43.942  40.394  25.603  1.00  0.00    +0.000 H 
ATOM    148  H44 UNL A   1      43.286  40.730  27.324  1.00  0.00    +0.000 H 
ATOM     29  C28 UNL A   1      43.473  41.038  26.317  1.00  0.00    +0.000 C 
BRANCH   29   28
ATOM    146  H42 UNL A   1      44.716  42.504  25.431  1.00  0.00    +0.000 H 
ATOM    147  H43 UNL A   1      44.114  42.859  27.097  1.00  0.00    +0.000 H 
ATOM     28  C27 UNL A   1      44.531  42.143  26.420  1.00  0.00    +0.000 C 
BRANCH   28   27
ATOM      3  C3  UNL A   1      46.115  42.326  28.483  1.00  0.00    +0.000 C 
ATOM      4  C4  UNL A   1      47.286  43.331  28.607  1.00  0.00    +0.000 C 
ATOM      6  C5  UNL A   1      48.454  43.052  27.660  1.00  0.00    +0.000 C 
ATOM      7  C6  UNL A   1      47.944  43.144  26.185  1.00  0.00    +0.000 C 
ATOM      8  C7  UNL A   1      46.974  41.556  25.905  1.00  0.00    +0.000 C 
ATOM      9  C8  UNL A   1      46.684  40.807  24.141  1.00  0.00    +0.000 C 
ATOM     10  C9  UNL A   1      47.450  41.706  22.598  1.00  0.00    +0.000 C 
ATOM     11  C10 UNL A   1      48.428  43.399  22.815  1.00  0.00    +0.000 C 
ATOM    139  H35 UNL A   1      48.661  45.938  25.345  1.00  0.00    +0.000 H 
ATOM    140  H36 UNL A   1      50.052  45.658  24.263  1.00  0.00    +0.000 H 
ATOM     13  C12 UNL A   1      47.621  44.834  22.357  1.00  0.00    +0.000 C 
ATOM    137  H33 UNL A   1      47.417  46.565  23.631  1.00  0.00    +0.000 H 
ATOM    144  H40 UNL A   1      47.263  40.157  27.619  1.00  0.00    +0.000 H 
ATOM    145  H41 UNL A   1      46.236  39.464  26.730  1.00  0.00    +0.000 H 
ATOM    138  H34 UNL A   1      48.907  46.517  22.654  1.00  0.00    +0.000 H 
ATOM     22  C21 UNL A   1      48.223  45.964  23.264  1.00  0.00    +0.000 C 
ATOM     23  C22 UNL A   1      49.022  45.446  24.466  1.00  0.00    +0.000 C 
ATOM     24  C23 UNL A   1      48.921  43.920  24.688  1.00  0.00    +0.000 C 
ATOM     26  C25 UNL A   1      46.572  40.470  26.864  1.00  0.00    +0.000 C 
ATOM     27  C26 UNL A   1      45.858  41.776  27.022  1.00  0.00    +0.000 C 
ATOM    108  H4  UNL A   1      46.448  41.448  28.996  1.00  0.00    +0.000 H 
ATOM    109  H5  UNL A   1      46.852  44.274  28.344  1.00  0.00    +0.000 H 
ATOM    111  H7  UNL A   1      48.840  42.073  27.846  1.00  0.00    +0.000 H 
ATOM    112  H8  UNL A   1      49.230  43.771  27.820  1.00  0.00    +0.000 H 
ATOM    113  H9  UNL A   1      47.381  44.052  26.137  1.00  0.00    +0.000 H 
ATOM    114  H10 UNL A   1      45.626  40.768  23.988  1.00  0.00    +0.000 H 
ATOM    115  H11 UNL A   1      47.198  39.870  24.173  1.00  0.00    +0.000 H 
ATOM    116  H12 UNL A   1      46.642  41.902  21.925  1.00  0.00    +0.000 H 
ATOM    117  H13 UNL A   1      48.212  41.027  22.277  1.00  0.00    +0.000 H 
ATOM    121  H17 UNL A   1      47.756  44.812  21.296  1.00  0.00    +0.000 H 
BRANCH    3    2
ATOM      2  C2  UNL A   1      44.865  42.764  29.246  1.00  0.00    +0.000 C 
ATOM    107  H3  UNL A   1      44.645  43.772  29.214  1.00  0.00    +0.000 H 
BRANCH    2    1
ATOM      1  C1  UNL A   1      44.019  41.997  29.950  1.00  0.00    +0.000 C 
ATOM    106  H2  UNL A   1      44.301  41.048  30.239  1.00  0.00    +0.000 H 
ATOM    105  H1  UNL A   1      43.085  42.357  30.205  1.00  0.00    +0.000 H 
ENDBRANCH    2    1
ENDBRANCH    3    2
BRANCH    4    5
ATOM      5  O1  UNL A   1      47.817  43.345  29.938  1.00  0.00    +0.000 O 
ATOM    110  H6  UNL A   1      47.255  42.807  30.517  1.00  0.00    +0.000 H 
ENDBRANCH    4    5
BRANCH   11   12
ATOM     12  C11 UNL A   1      49.343  43.327  21.516  1.00  0.00    +0.000 C 
ATOM    118  H14 UNL A   1      49.126  42.428  20.977  1.00  0.00    +0.000 H 
ATOM    119  H15 UNL A   1      50.372  43.331  21.804  1.00  0.00    +0.000 H 
ATOM    120  H16 UNL A   1      49.143  44.173  20.892  1.00  0.00    +0.000 H 
ENDBRANCH   11   12
BRANCH   13   14
ATOM    122  H18 UNL A   1      46.523  45.792  21.073  1.00  0.00    +0.000 H 
ATOM     14  C13 UNL A   1      46.117  45.047  21.725  1.00  0.00    +0.000 C 
BRANCH   14   15
ATOM    123  H19 UNL A   1      45.285  46.344  23.223  1.00  0.00    +0.000 H 
ATOM    124  H20 UNL A   1      45.144  44.644  23.599  1.00  0.00    +0.000 H 
ATOM    125  H21 UNL A   1      44.100  45.362  22.396  1.00  0.00    +0.000 H 
ATOM     15  C14 UNL A   1      45.083  45.374  22.819  1.00  0.00    +0.000 C 
ENDBRANCH   14   15
BRANCH   14   16
ATOM    126  H22 UNL A   1      44.406  44.703  20.456  1.00  0.00    +0.000 H 
ATOM    127  H23 UNL A   1      45.490  43.258  20.812  1.00  0.00    +0.000 H 
ATOM     16  C15 UNL A   1      45.387  44.284  20.526  1.00  0.00    +0.000 C 
BRANCH   16   17
ATOM     17  C16 UNL A   1      45.968  44.287  19.083  1.00  0.00    +0.000 C 
ATOM    129  H25 UNL A   1      46.815  43.636  19.141  1.00  0.00    +0.000 H 
ATOM    128  H24 UNL A   1      45.180  43.980  18.426  1.00  0.00    +0.000 H 
BRANCH   17   18
ATOM     18  C17 UNL A   1      46.537  45.591  18.525  1.00  0.00    +0.000 C 
ATOM    130  H26 UNL A   1      45.918  46.413  18.605  1.00  0.00    +0.000 H 
BRANCH   18   19
ATOM     19  C18 UNL A   1      47.740  45.824  17.940  1.00  0.00    +0.000 C 
BRANCH   19   20
ATOM    133  H29 UNL A   1      49.580  46.694  18.537  1.00  0.00    +0.000 H 
ATOM    131  H27 UNL A   1      49.613  44.950  18.414  1.00  0.00    +0.000 H 
ATOM     20  C19 UNL A   1      49.030  45.794  18.722  1.00  0.00    +0.000 C 
ATOM    132  H28 UNL A   1      48.814  45.716  19.767  1.00  0.00    +0.000 H 
ENDBRANCH   19   20
BRANCH   19   21
ATOM     21  C20 UNL A   1      47.999  46.205  16.512  1.00  0.00    +0.000 C 
ATOM    134  H30 UNL A   1      48.932  46.722  16.445  1.00  0.00    +0.000 H 
ATOM    135  H31 UNL A   1      47.212  46.841  16.164  1.00  0.00    +0.000 H 
ATOM    136  H32 UNL A   1      48.037  45.321  15.908  1.00  0.00    +0.000 H 
ENDBRANCH   19   21
ENDBRANCH   18   19
ENDBRANCH   17   18
ENDBRANCH   16   17
ENDBRANCH   14   16
ENDBRANCH   13   14
BRANCH   24   25
ATOM     25  C24 UNL A   1      50.233  43.710  25.549  1.00  0.00    +0.000 C 
ATOM    141  H37 UNL A   1      49.964  43.504  26.563  1.00  0.00    +0.000 H 
ATOM    142  H38 UNL A   1      50.830  44.597  25.511  1.00  0.00    +0.000 H 
ATOM    143  H39 UNL A   1      50.790  42.886  25.153  1.00  0.00    +0.000 H 
ENDBRANCH   24   25
ENDBRANCH   28   27
ENDBRANCH   29   28
ENDBRANCH   30   29
ENDBRANCH   32   30
ENDBRANCH   33   32
ENDBRANCH   34   33
ENDBRANCH   35   34
ENDBRANCH   36   35
ENDBRANCH   37   36
ENDBRANCH   38   37
ENDBRANCH   39   38
ENDBRANCH   40   39
ENDBRANCH   42   40
ENDBRANCH   46   45
BRANCH   50   51
ATOM     51  C45 UNL A   1      47.831  55.596  15.197  1.00  0.00    +0.000 C 
ATOM     52  C46 UNL A   1      48.124  55.312  13.853  1.00  0.00    +0.000 C 
ATOM     53  F1  UNL A   1      48.874  54.246  13.536  1.00  0.00    +0.000 F 
ATOM     54  C47 UNL A   1      47.704  56.158  12.830  1.00  0.00    +0.000 C 
ATOM     55  F2  UNL A   1      48.060  55.903  11.564  1.00  0.00    +0.000 F 
ATOM     56  C48 UNL A   1      46.940  57.277  13.124  1.00  0.00    +0.000 C 
ATOM     57  F3  UNL A   1      46.533  58.089  12.139  1.00  0.00    +0.000 F 
ATOM     58  C49 UNL A   1      46.607  57.558  14.441  1.00  0.00    +0.000 C 
ATOM     59  F4  UNL A   1      45.860  58.634  14.724  1.00  0.00    +0.000 F 
ATOM     60  C50 UNL A   1      47.059  56.736  15.470  1.00  0.00    +0.000 C 
ATOM     61  F5  UNL A   1      46.750  57.058  16.734  1.00  0.00    +0.000 F 
ENDBRANCH   50   51
BRANCH   67   68
ATOM     68  C56 UNL A   1      53.156  55.413  20.051  1.00  0.00    +0.000 C 
ATOM     69  C57 UNL A   1      52.982  56.470  20.955  1.00  0.00    +0.000 C 
ATOM     70  F6  UNL A   1      51.758  56.776  21.408  1.00  0.00    +0.000 F 
ATOM     71  C58 UNL A   1      54.067  57.231  21.375  1.00  0.00    +0.000 C 
ATOM     72  F7  UNL A   1      53.876  58.263  22.210  1.00  0.00    +0.000 F 
ATOM     73  C59 UNL A   1      55.345  56.929  20.929  1.00  0.00    +0.000 C 
ATOM     74  F8  UNL A   1      56.392  57.654  21.349  1.00  0.00    +0.000 F 
ATOM     75  C60 UNL A   1      55.541  55.879  20.045  1.00  0.00    +0.000 C 
ATOM     76  F9  UNL A   1      56.777  55.572  19.629  1.00  0.00    +0.000 F 
ATOM     77  C61 UNL A   1      54.455  55.136  19.597  1.00  0.00    +0.000 C 
ATOM     78  F10 UNL A   1      54.671  54.126  18.742  1.00  0.00    +0.000 F 
ENDBRANCH   67   68
BRANCH   82   83
ATOM     83  C65 UNL A   1      50.851  49.260  22.408  1.00  0.00    +0.000 C 
ATOM     84  C66 UNL A   1      50.420  49.397  23.736  1.00  0.00    +0.000 C 
ATOM     85  F11 UNL A   1      49.590  50.395  24.070  1.00  0.00    +0.000 F 
ATOM     86  C67 UNL A   1      50.870  48.535  24.733  1.00  0.00    +0.000 C 
ATOM     87  F12 UNL A   1      50.479  48.718  26.001  1.00  0.00    +0.000 F 
ATOM     88  C68 UNL A   1      51.736  47.498  24.419  1.00  0.00    +0.000 C 
ATOM     89  F13 UNL A   1      52.168  46.668  25.378  1.00  0.00    +0.000 F 
ATOM     90  C69 UNL A   1      52.159  47.328  23.109  1.00  0.00    +0.000 C 
ATOM     91  F14 UNL A   1      52.982  46.319  22.798  1.00  0.00    +0.000 F 
ATOM     92  C70 UNL A   1      51.731  48.207  22.115  1.00  0.00    +0.000 C 
ATOM     93  F15 UNL A   1      52.165  48.026  20.860  1.00  0.00    +0.000 F 
ENDBRANCH   82   83
TORSDOF 30
ENDMDL
MODEL 2
REMARK VINA RESULT:      -8.6     34.303     38.129
ROOT
ATOM    166  H62 UNL A   1      15.460  56.745   4.378  1.00  0.00    +0.000 H 
ATOM    167  H63 UNL A   1      16.961  57.078   2.273  1.00  0.00    +0.000 H 
ATOM    168  H64 UNL A   1      15.556  53.187   2.253  1.00  0.00    +0.000 H 
ATOM    169  H65 UNL A   1      15.511  47.370  -0.476  1.00  0.00    +0.000 H 
ATOM    170  H66 UNL A   1      14.103  47.044   1.616  1.00  0.00    +0.000 H 
ATOM    171  H67 UNL A   1      15.386  50.996   1.552  1.00  0.00    +0.000 H 
ATOM    172  H68 UNL A   1      18.199  51.566  -2.516  1.00  0.00    +0.000 H 
ATOM    173  H69 UNL A   1      18.680  53.928  -1.658  1.00  0.00    +0.000 H 
ATOM     46  C41 UNL A   1      13.926  49.364   3.270  1.00  0.00    +0.000 C 
ATOM     47  C42 UNL A   1      13.889  50.716   3.934  1.00  0.00    +0.000 C 
ATOM     48  N3  UNL A   1      14.349  51.863   3.512  1.00  0.00    +0.000 N 
ATOM    175  H71 UNL A   1      12.815  50.037   5.818  1.00  0.00    +0.000 H 
ATOM     49  C43 UNL A   1      13.943  52.794   4.459  1.00  0.00    +0.000 C 
ATOM    174  H70 UNL A   1      12.557  52.567   6.154  1.00  0.00    +0.000 H 
ATOM     50  C44 UNL A   1      14.279  54.101   4.552  1.00  0.00    +0.000 C 
ATOM     62  C51 UNL A   1      15.172  54.743   3.631  1.00  0.00    +0.000 C 
ATOM     63  C52 UNL A   1      15.662  56.033   3.659  1.00  0.00    +0.000 C 
ATOM     64  C53 UNL A   1      16.481  56.204   2.539  1.00  0.00    +0.000 C 
ATOM     65  C54 UNL A   1      16.541  55.005   1.843  1.00  0.00    +0.000 C 
ATOM     66  N4  UNL A   1      15.723  54.120   2.520  1.00  0.00    +0.000 N 
ATOM     67  C55 UNL A   1      17.290  54.696   0.652  1.00  0.00    +0.000 C 
ATOM     79  C62 UNL A   1      17.300  53.504   0.004  1.00  0.00    +0.000 C 
ATOM     80  N5  UNL A   1      16.635  52.327   0.316  1.00  0.00    +0.000 N 
ATOM     81  C63 UNL A   1      16.956  51.468  -0.624  1.00  0.00    +0.000 C 
ATOM     82  C64 UNL A   1      16.549  50.024  -0.773  1.00  0.00    +0.000 C 
ATOM     94  C71 UNL A   1      15.775  49.478   0.182  1.00  0.00    +0.000 C 
ATOM     95  C72 UNL A   1      15.307  48.095   0.229  1.00  0.00    +0.000 C 
ATOM     96  C73 UNL A   1      14.571  47.921   1.339  1.00  0.00    +0.000 C 
ATOM     97  C74 UNL A   1      14.541  49.176   2.092  1.00  0.00    +0.000 C 
ATOM     98  N6  UNL A   1      15.256  50.049   1.317  1.00  0.00    +0.000 N 
ATOM     99  C75 UNL A   1      17.839  52.017  -1.659  1.00  0.00    +0.000 C 
ATOM    100  C76 UNL A   1      18.054  53.244  -1.205  1.00  0.00    +0.000 C 
ATOM    101  C77 UNL A   1      13.116  52.106   5.418  1.00  0.00    +0.000 C 
ATOM    102  C78 UNL A   1      13.175  50.800   5.224  1.00  0.00    +0.000 C 
ENDROOT
BRANCH   46   45
ATOM    164  H60 UNL A   1      13.485  45.866   6.263  1.00  0.00    +0.000 H 
ATOM    165  H61 UNL A   1      14.831  47.461   5.002  1.00  0.00    +0.000 H 
ATOM    103  C79 UNL A   1      11.811  48.183   3.695  1.00  0.00    +0.000 C 
ATOM    104  C80 UNL A   1      11.038  47.378   4.502  1.00  0.00    +0.000 C 
ATOM     42  C37 UNL A   1      11.659  46.524   5.423  1.00  0.00    +0.000 C 
ATOM     43  C38 UNL A   1      13.040  46.520   5.599  1.00  0.00    +0.000 C 
ATOM     44  C39 UNL A   1      13.809  47.416   4.860  1.00  0.00    +0.000 C 
ATOM     45  C40 UNL A   1      13.192  48.260   3.920  1.00  0.00    +0.000 C 
ATOM    176  H72 UNL A   1      11.378  48.726   2.932  1.00  0.00    +0.000 H 
ATOM    177  H73 UNL A   1      10.009  47.402   4.428  1.00  0.00    +0.000 H 
BRANCH   42   40
ATOM     41  O3  UNL A   1      11.225  44.431   6.433  1.00  0.00    +0.000 O 
ATOM     40  C36 UNL A   1      10.811  45.504   6.081  1.00  0.00    +0.000 C 
BRANCH   40   39
ATOM    163  H59 UNL A   1       8.959  46.187   5.487  1.00  0.00    +0.000 H 
ATOM     39  N2  UNL A   1       9.499  45.903   6.259  1.00  0.00    +0.000 N 
BRANCH   39   38
ATOM    161  H57 UNL A   1       9.579  45.385   8.264  1.00  0.00    +0.000 H 
ATOM    162  H58 UNL A   1       8.794  46.898   7.945  1.00  0.00    +0.000 H 
ATOM     38  C35 UNL A   1       8.926  45.898   7.589  1.00  0.00    +0.000 C 
BRANCH   38   37
ATOM     37  C34 UNL A   1       7.601  45.183   7.514  1.00  0.00    +0.000 C 
ATOM    159  H55 UNL A   1       7.518  44.724   6.551  1.00  0.00    +0.000 H 
ATOM    160  H56 UNL A   1       7.585  44.468   8.309  1.00  0.00    +0.000 H 
BRANCH   37   36
ATOM     36  C33 UNL A   1       6.356  46.132   7.721  1.00  0.00    +0.000 C 
ATOM    157  H53 UNL A   1       5.494  45.507   7.615  1.00  0.00    +0.000 H 
ATOM    158  H54 UNL A   1       6.599  46.581   8.661  1.00  0.00    +0.000 H 
BRANCH   36   35
ATOM     35  C32 UNL A   1       6.047  47.486   6.797  1.00  0.00    +0.000 C 
ATOM    156  H52 UNL A   1       6.098  48.173   7.616  1.00  0.00    +0.000 H 
ATOM    155  H51 UNL A   1       5.228  47.175   6.183  1.00  0.00    +0.000 H 
BRANCH   35   34
ATOM    153  H49 UNL A   1       7.462  47.787   4.999  1.00  0.00    +0.000 H 
ATOM     34  C31 UNL A   1       7.044  48.525   5.651  1.00  0.00    +0.000 C 
ATOM    154  H50 UNL A   1       6.284  49.275   5.584  1.00  0.00    +0.000 H 
BRANCH   34   33
ATOM     33  C30 UNL A   1       8.591  49.946   5.729  1.00  0.00    +0.000 C 
ATOM    151  H47 UNL A   1       8.899  49.997   4.705  1.00  0.00    +0.000 H 
ATOM    152  H48 UNL A   1       8.054  50.593   6.390  1.00  0.00    +0.000 H 
BRANCH   33   32
ATOM    150  H46 UNL A   1      10.560  50.668   5.948  1.00  0.00    +0.000 H 
ATOM     32  N1  UNL A   1       9.909  50.140   6.463  1.00  0.00    +0.000 N 
BRANCH   32   30
ATOM     30  C29 UNL A   1      10.390  49.746   7.670  1.00  0.00    +0.000 C 
ATOM     31  O2  UNL A   1       9.607  49.904   8.617  1.00  0.00    +0.000 O 
BRANCH   30   29
ATOM    149  H45 UNL A   1      12.368  49.753   7.338  1.00  0.00    +0.000 H 
ATOM    148  H44 UNL A   1      11.623  48.076   7.707  1.00  0.00    +0.000 H 
ATOM     29  C28 UNL A   1      11.746  49.115   7.930  1.00  0.00    +0.000 C 
BRANCH   29   28
ATOM    146  H42 UNL A   1      11.813  49.475  10.014  1.00  0.00    +0.000 H 
ATOM    147  H43 UNL A   1      12.892  48.168   9.388  1.00  0.00    +0.000 H 
ATOM     28  C27 UNL A   1      12.504  49.157   9.263  1.00  0.00    +0.000 C 
BRANCH   28   27
ATOM      3  C3  UNL A   1      15.105  49.323   9.240  1.00  0.00    +0.000 C 
ATOM      4  C4  UNL A   1      15.992  49.421  10.505  1.00  0.00    +0.000 C 
ATOM      6  C5  UNL A   1      15.854  50.740  11.266  1.00  0.00    +0.000 C 
ATOM      7  C6  UNL A   1      14.375  50.897  11.747  1.00  0.00    +0.000 C 
ATOM      8  C7  UNL A   1      13.408  51.365  10.203  1.00  0.00    +0.000 C 
ATOM      9  C8  UNL A   1      11.720  52.315  10.276  1.00  0.00    +0.000 C 
ATOM     10  C9  UNL A   1      11.008  52.838  12.007  1.00  0.00    +0.000 C 
ATOM     11  C10 UNL A   1      11.941  52.332  13.663  1.00  0.00    +0.000 C 
ATOM    139  H35 UNL A   1      14.430  49.912  14.585  1.00  0.00    +0.000 H 
ATOM    140  H36 UNL A   1      14.309  51.433  15.511  1.00  0.00    +0.000 H 
ATOM     13  C12 UNL A   1      11.277  51.048  14.575  1.00  0.00    +0.000 C 
ATOM    137  H33 UNL A   1      12.401  49.325  15.231  1.00  0.00    +0.000 H 
ATOM    144  H40 UNL A   1      14.801  51.804   8.517  1.00  0.00    +0.000 H 
ATOM    145  H41 UNL A   1      13.412  51.893   7.895  1.00  0.00    +0.000 H 
ATOM    138  H34 UNL A   1      12.450  50.725  16.334  1.00  0.00    +0.000 H 
ATOM     22  C21 UNL A   1      12.492  50.387  15.319  1.00  0.00    +0.000 C 
ATOM     23  C22 UNL A   1      13.863  50.800  14.772  1.00  0.00    +0.000 C 
ATOM     24  C23 UNL A   1      13.806  51.622  13.464  1.00  0.00    +0.000 C 
ATOM     26  C25 UNL A   1      13.830  51.426   8.761  1.00  0.00    +0.000 C 
ATOM     27  C26 UNL A   1      13.706  50.054   9.346  1.00  0.00    +0.000 C 
ATOM    108  H4  UNL A   1      15.608  49.913   8.503  1.00  0.00    +0.000 H 
ATOM    109  H5  UNL A   1      15.641  48.627  11.133  1.00  0.00    +0.000 H 
ATOM    111  H7  UNL A   1      16.110  51.554  10.622  1.00  0.00    +0.000 H 
ATOM    112  H8  UNL A   1      16.511  50.742  12.111  1.00  0.00    +0.000 H 
ATOM    113  H9  UNL A   1      14.122  49.957  12.193  1.00  0.00    +0.000 H 
ATOM    114  H10 UNL A   1      10.988  51.688   9.813  1.00  0.00    +0.000 H 
ATOM    115  H11 UNL A   1      11.929  53.246   9.793  1.00  0.00    +0.000 H 
ATOM    116  H12 UNL A   1      10.022  52.425  12.071  1.00  0.00    +0.000 H 
ATOM    117  H13 UNL A   1      11.101  53.904  11.994  1.00  0.00    +0.000 H 
ATOM    121  H17 UNL A   1      10.488  51.553  15.092  1.00  0.00    +0.000 H 
BRANCH    3    2
ATOM      2  C2  UNL A   1      15.064  47.917   8.643  1.00  0.00    +0.000 C 
ATOM    107  H3  UNL A   1      14.383  47.266   9.063  1.00  0.00    +0.000 H 
BRANCH    2    1
ATOM      1  C1  UNL A   1      15.807  47.428   7.637  1.00  0.00    +0.000 C 
ATOM    106  H2  UNL A   1      15.697  46.445   7.345  1.00  0.00    +0.000 H 
ATOM    105  H1  UNL A   1      16.488  48.036   7.154  1.00  0.00    +0.000 H 
ENDBRANCH    2    1
ENDBRANCH    3    2
BRANCH    4    5
ATOM      5  O1  UNL A   1      17.379  49.265  10.179  1.00  0.00    +0.000 O 
ATOM    110  H6  UNL A   1      17.796  48.662  10.814  1.00  0.00    +0.000 H 
ENDBRANCH    4    5
BRANCH   11   12
ATOM     12  C11 UNL A   1      11.398  53.482  14.617  1.00  0.00    +0.000 C 
ATOM    118  H14 UNL A   1      11.376  53.129  15.626  1.00  0.00    +0.000 H 
ATOM    119  H15 UNL A   1      10.411  53.760  14.315  1.00  0.00    +0.000 H 
ATOM    120  H16 UNL A   1      12.044  54.333  14.552  1.00  0.00    +0.000 H 
ENDBRANCH   11   12
BRANCH   13   14
ATOM    122  H18 UNL A   1       9.468  51.004  13.871  1.00  0.00    +0.000 H 
ATOM     14  C13 UNL A   1       9.931  50.142  14.303  1.00  0.00    +0.000 C 
BRANCH   14   15
ATOM    123  H19 UNL A   1       9.765  50.043  16.444  1.00  0.00    +0.000 H 
ATOM    124  H20 UNL A   1       9.785  48.481  15.660  1.00  0.00    +0.000 H 
ATOM    125  H21 UNL A   1       8.348  49.473  15.595  1.00  0.00    +0.000 H 
ATOM     15  C14 UNL A   1       9.418  49.485  15.599  1.00  0.00    +0.000 C 
ENDBRANCH   14   15
BRANCH   14   16
ATOM    126  H22 UNL A   1      10.063  49.619  12.214  1.00  0.00    +0.000 H 
ATOM    127  H23 UNL A   1       8.478  49.247  13.073  1.00  0.00    +0.000 H 
ATOM     16  C15 UNL A   1       9.547  49.217  13.060  1.00  0.00    +0.000 C 
BRANCH   16   17
ATOM     17  C16 UNL A   1       9.835  47.687  13.060  1.00  0.00    +0.000 C 
ATOM    129  H25 UNL A   1      10.591  47.564  13.807  1.00  0.00    +0.000 H 
ATOM    128  H24 UNL A   1       8.904  47.192  13.243  1.00  0.00    +0.000 H 
BRANCH   17   18
ATOM     18  C17 UNL A   1      10.443  47.057  11.808  1.00  0.00    +0.000 C 
ATOM    130  H26 UNL A   1       9.939  47.248  10.928  1.00  0.00    +0.000 H 
BRANCH   18   19
ATOM     19  C18 UNL A   1      11.551  46.282  11.686  1.00  0.00    +0.000 C 
BRANCH   19   20
ATOM    133  H29 UNL A   1      13.088  45.741  10.327  1.00  0.00    +0.000 H 
ATOM    131  H27 UNL A   1      11.652  46.389   9.570  1.00  0.00    +0.000 H 
ATOM     20  C19 UNL A   1      12.018  45.755  10.351  1.00  0.00    +0.000 C 
ATOM    132  H28 UNL A   1      11.645  44.762  10.208  1.00  0.00    +0.000 H 
ENDBRANCH   19   20
BRANCH   19   21
ATOM     21  C20 UNL A   1      12.429  45.769  12.790  1.00  0.00    +0.000 C 
ATOM    134  H30 UNL A   1      12.983  46.581  13.210  1.00  0.00    +0.000 H 
ATOM    135  H31 UNL A   1      13.106  45.040  12.398  1.00  0.00    +0.000 H 
ATOM    136  H32 UNL A   1      11.822  45.322  13.549  1.00  0.00    +0.000 H 
ENDBRANCH   19   21
ENDBRANCH   18   19
ENDBRANCH   17   18
ENDBRANCH   16   17
ENDBRANCH   14   16
ENDBRANCH   13   14
BRANCH   24   25
ATOM     25  C24 UNL A   1      15.229  52.311  13.545  1.00  0.00    +0.000 C 
ATOM    141  H37 UNL A   1      15.257  52.974  14.384  1.00  0.00    +0.000 H 
ATOM    142  H38 UNL A   1      15.409  52.865  12.647  1.00  0.00    +0.000 H 
ATOM    143  H39 UNL A   1      15.983  51.560  13.659  1.00  0.00    +0.000 H 
ENDBRANCH   24   25
ENDBRANCH   28   27
ENDBRANCH   29   28
ENDBRANCH   30   29
ENDBRANCH   32   30
ENDBRANCH   33   32
ENDBRANCH   34   33
ENDBRANCH   35   34
ENDBRANCH   36   35
ENDBRANCH   37   36
ENDBRANCH   38   37
ENDBRANCH   39   38
ENDBRANCH   40   39
ENDBRANCH   42   40
ENDBRANCH   46   45
BRANCH   50   51
ATOM     51  C45 UNL A   1      13.703  54.887   5.693  1.00  0.00    +0.000 C 
ATOM     52  C46 UNL A   1      14.205  54.775   7.000  1.00  0.00    +0.000 C 
ATOM     53  F1  UNL A   1      15.223  53.942   7.263  1.00  0.00    +0.000 F 
ATOM     54  C47 UNL A   1      13.622  55.468   8.057  1.00  0.00    +0.000 C 
ATOM     55  F2  UNL A   1      14.074  55.285   9.306  1.00  0.00    +0.000 F 
ATOM     56  C48 UNL A   1      12.559  56.326   7.824  1.00  0.00    +0.000 C 
ATOM     57  F3  UNL A   1      12.000  56.995   8.841  1.00  0.00    +0.000 F 
ATOM     58  C49 UNL A   1      12.068  56.481   6.536  1.00  0.00    +0.000 C 
ATOM     59  F4  UNL A   1      11.046  57.317   6.307  1.00  0.00    +0.000 F 
ATOM     60  C50 UNL A   1      12.623  55.759   5.482  1.00  0.00    +0.000 C 
ATOM     61  F5  UNL A   1      12.101  55.905   4.255  1.00  0.00    +0.000 F 
ENDBRANCH   50   51
BRANCH   67   68
ATOM     68  C56 UNL A   1      18.149  55.789   0.092  1.00  0.00    +0.000 C 
ATOM     69  C57 UNL A   1      19.446  56.020   0.568  1.00  0.00    +0.000 C 
ATOM     70  F6  UNL A   1      19.921  55.314   1.605  1.00  0.00    +0.000 F 
ATOM     71  C58 UNL A   1      20.251  56.998  -0.007  1.00  0.00    +0.000 C 
ATOM     72  F7  UNL A   1      21.475  57.231   0.488  1.00  0.00    +0.000 F 
ATOM     73  C59 UNL A   1      19.787  57.735  -1.086  1.00  0.00    +0.000 C 
ATOM     74  F8  UNL A   1      20.572  58.665  -1.649  1.00  0.00    +0.000 F 
ATOM     75  C60 UNL A   1      18.512  57.513  -1.582  1.00  0.00    +0.000 C 
ATOM     76  F9  UNL A   1      18.070  58.210  -2.638  1.00  0.00    +0.000 F 
ATOM     77  C61 UNL A   1      17.692  56.559  -0.989  1.00  0.00    +0.000 C 
ATOM     78  F10 UNL A   1      16.462  56.365  -1.487  1.00  0.00    +0.000 F 
ENDBRANCH   67   68
BRANCH   82   83
ATOM     83  C65 UNL A   1      17.030  49.197  -1.910  1.00  0.00    +0.000 C 
ATOM     84  C66 UNL A   1      18.177  48.399  -1.786  1.00  0.00    +0.000 C 
ATOM     85  F11 UNL A   1      18.864  48.390  -0.634  1.00  0.00    +0.000 F 
ATOM     86  C67 UNL A   1      18.648  47.640  -2.855  1.00  0.00    +0.000 C 
ATOM     87  F12 UNL A   1      19.773  46.925  -2.723  1.00  0.00    +0.000 F 
ATOM     88  C68 UNL A   1      17.963  47.636  -4.061  1.00  0.00    +0.000 C 
ATOM     89  F13 UNL A   1      18.414  46.904  -5.089  1.00  0.00    +0.000 F 
ATOM     90  C69 UNL A   1      16.812  48.398  -4.201  1.00  0.00    +0.000 C 
ATOM     91  F14 UNL A   1      16.139  48.385  -5.359  1.00  0.00    +0.000 F 
ATOM     92  C70 UNL A   1      16.357  49.180  -3.141  1.00  0.00    +0.000 C 
ATOM     93  F15 UNL A   1      15.249  49.916  -3.309  1.00  0.00    +0.000 F 
ENDBRANCH   82   83
TORSDOF 30
ENDMDL
MODEL 3
REMARK VINA RESULT:      -8.6     60.901     68.398
ROOT
ATOM    166  H62 UNL A   1       3.262  -0.350  28.369  1.00  0.00    +0.000 H 
ATOM    167  H63 UNL A   1       2.759  -0.019  30.905  1.00  0.00    +0.000 H 
ATOM    168  H64 UNL A   1       4.596  -3.694  30.423  1.00  0.00    +0.000 H 
ATOM    169  H65 UNL A   1       6.641  -9.203  33.023  1.00  0.00    +0.000 H 
ATOM    170  H66 UNL A   1       7.066  -9.537  30.539  1.00  0.00    +0.000 H 
ATOM    171  H67 UNL A   1       5.366  -5.778  31.042  1.00  0.00    +0.000 H 
ATOM    172  H68 UNL A   1       4.482  -5.201  35.907  1.00  0.00    +0.000 H 
ATOM    173  H69 UNL A   1       3.343  -2.998  35.276  1.00  0.00    +0.000 H 
ATOM     46  C41 UNL A   1       6.185  -7.366  28.907  1.00  0.00    +0.000 C 
ATOM     47  C42 UNL A   1       5.740  -6.082  28.256  1.00  0.00    +0.000 C 
ATOM     48  N3  UNL A   1       5.338  -4.967  28.804  1.00  0.00    +0.000 N 
ATOM    175  H71 UNL A   1       6.005  -6.788  26.113  1.00  0.00    +0.000 H 
ATOM     49  C43 UNL A   1       5.165  -4.080  27.749  1.00  0.00    +0.000 C 
ATOM    174  H70 UNL A   1       5.723  -4.285  25.630  1.00  0.00    +0.000 H 
ATOM     50  C44 UNL A   1       4.634  -2.837  27.775  1.00  0.00    +0.000 C 
ATOM     62  C51 UNL A   1       4.129  -2.230  28.973  1.00  0.00    +0.000 C 
ATOM     63  C52 UNL A   1       3.489  -1.015  29.124  1.00  0.00    +0.000 C 
ATOM     64  C53 UNL A   1       3.205  -0.847  30.482  1.00  0.00    +0.000 C 
ATOM     65  C54 UNL A   1       3.621  -1.980  31.168  1.00  0.00    +0.000 C 
ATOM     66  N4  UNL A   1       4.197  -2.815  30.229  1.00  0.00    +0.000 N 
ATOM     67  C55 UNL A   1       3.498  -2.272  32.573  1.00  0.00    +0.000 C 
ATOM     79  C62 UNL A   1       3.938  -3.396  33.194  1.00  0.00    +0.000 C 
ATOM     80  N5  UNL A   1       4.574  -4.506  32.659  1.00  0.00    +0.000 N 
ATOM     81  C63 UNL A   1       4.810  -5.312  33.667  1.00  0.00    +0.000 C 
ATOM     82  C64 UNL A   1       5.449  -6.677  33.667  1.00  0.00    +0.000 C 
ATOM     94  C71 UNL A   1       5.819  -7.207  32.486  1.00  0.00    +0.000 C 
ATOM     95  C72 UNL A   1       6.419  -8.522  32.280  1.00  0.00    +0.000 C 
ATOM     96  C73 UNL A   1       6.636  -8.702  30.966  1.00  0.00    +0.000 C 
ATOM     97  C74 UNL A   1       6.161  -7.523  30.240  1.00  0.00    +0.000 C 
ATOM     98  N6  UNL A   1       5.720  -6.679  31.223  1.00  0.00    +0.000 N 
ATOM     99  C75 UNL A   1       4.377  -4.786  34.967  1.00  0.00    +0.000 C 
ATOM    100  C76 UNL A   1       3.812  -3.638  34.617  1.00  0.00    +0.000 C 
ATOM    101  C77 UNL A   1       5.601  -4.744  26.547  1.00  0.00    +0.000 C 
ATOM    102  C78 UNL A   1       5.822  -6.026  26.783  1.00  0.00    +0.000 C 
ENDROOT
BRANCH   46   45
ATOM    164  H60 UNL A   1       5.836 -11.072  26.164  1.00  0.00    +0.000 H 
ATOM    165  H61 UNL A   1       4.940  -9.546  27.840  1.00  0.00    +0.000 H 
ATOM    103  C79 UNL A   1       8.060  -8.294  27.614  1.00  0.00    +0.000 C 
ATOM    104  C80 UNL A   1       8.520  -9.071  26.573  1.00  0.00    +0.000 C 
ATOM     42  C37 UNL A   1       7.708 -10.092  26.063  1.00  0.00    +0.000 C 
ATOM     43  C38 UNL A   1       6.413 -10.298  26.532  1.00  0.00    +0.000 C 
ATOM     44  C39 UNL A   1       5.912  -9.438  27.506  1.00  0.00    +0.000 C 
ATOM     45  C40 UNL A   1       6.730  -8.426  28.035  1.00  0.00    +0.000 C 
ATOM    176  H72 UNL A   1       8.688  -7.620  28.078  1.00  0.00    +0.000 H 
ATOM    177  H73 UNL A   1       9.456  -8.903  26.173  1.00  0.00    +0.000 H 
BRANCH   42   40
ATOM     41  O3  UNL A   1       9.521 -11.246  25.077  1.00  0.00    +0.000 O 
ATOM     40  C36 UNL A   1       8.335 -11.054  25.129  1.00  0.00    +0.000 C 
BRANCH   40   39
ATOM    163  H59 UNL A   1       6.757 -12.318  24.723  1.00  0.00    +0.000 H 
ATOM     39  N2  UNL A   1       7.428 -11.718  24.324  1.00  0.00    +0.000 N 
BRANCH   39   38
ATOM    161  H57 UNL A   1       8.445 -11.187  22.598  1.00  0.00    +0.000 H 
ATOM    162  H58 UNL A   1       7.271 -12.445  22.380  1.00  0.00    +0.000 H 
ATOM     38  C35 UNL A   1       7.472 -11.526  22.890  1.00  0.00    +0.000 C 
BRANCH   38   37
ATOM     37  C34 UNL A   1       6.439 -10.486  22.535  1.00  0.00    +0.000 C 
ATOM    159  H55 UNL A   1       5.925 -10.807  21.653  1.00  0.00    +0.000 H 
ATOM    160  H56 UNL A   1       5.785 -10.395  23.377  1.00  0.00    +0.000 H 
BRANCH   37   36
ATOM     36  C33 UNL A   1       7.047  -9.055  22.265  1.00  0.00    +0.000 C 
ATOM    157  H53 UNL A   1       8.086  -9.214  22.067  1.00  0.00    +0.000 H 
ATOM    158  H54 UNL A   1       6.388  -8.697  21.501  1.00  0.00    +0.000 H 
BRANCH   36   35
ATOM     35  C32 UNL A   1       6.982  -7.790  23.351  1.00  0.00    +0.000 C 
ATOM    156  H52 UNL A   1       6.998  -8.412  24.222  1.00  0.00    +0.000 H 
ATOM    155  H51 UNL A   1       6.217  -7.163  22.942  1.00  0.00    +0.000 H 
BRANCH   35   34
ATOM    153  H49 UNL A   1       7.773  -6.314  24.938  1.00  0.00    +0.000 H 
ATOM     34  C31 UNL A   1       8.205  -6.575  23.995  1.00  0.00    +0.000 C 
ATOM    154  H50 UNL A   1       9.039  -7.155  23.660  1.00  0.00    +0.000 H 
BRANCH   34   33
ATOM     33  C30 UNL A   1       9.098  -4.760  23.422  1.00  0.00    +0.000 C 
ATOM    151  H47 UNL A   1       9.132  -4.855  22.357  1.00  0.00    +0.000 H 
ATOM    152  H48 UNL A   1       8.520  -4.181  24.111  1.00  0.00    +0.000 H 
BRANCH   33   32
ATOM    150  H46 UNL A   1      10.508  -3.809  24.669  1.00  0.00    +0.000 H 
ATOM     32  N1  UNL A   1      10.380  -3.993  23.710  1.00  0.00    +0.000 N 
BRANCH   32   30
ATOM     30  C29 UNL A   1      11.385  -3.504  22.941  1.00  0.00    +0.000 C 
ATOM     31  O2  UNL A   1      11.793  -4.279  22.065  1.00  0.00    +0.000 O 
BRANCH   30   29
ATOM    149  H45 UNL A   1      11.120  -1.537  23.238  1.00  0.00    +0.000 H 
ATOM    148  H44 UNL A   1      12.577  -1.997  22.155  1.00  0.00    +0.000 H 
ATOM     29  C28 UNL A   1      11.998  -2.119  23.045  1.00  0.00    +0.000 C 
BRANCH   29   28
ATOM    146  H42 UNL A   1      13.015  -2.442  24.873  1.00  0.00    +0.000 H 
ATOM    147  H43 UNL A   1      13.800  -1.309  23.704  1.00  0.00    +0.000 H 
ATOM     28  C27 UNL A   1      12.900  -1.631  24.186  1.00  0.00    +0.000 C 
BRANCH   28   27
ATOM      3  C3  UNL A   1      11.547  -0.760  26.237  1.00  0.00    +0.000 C 
ATOM      4  C4  UNL A   1      10.096  -0.226  26.172  1.00  0.00    +0.000 C 
ATOM      6  C5  UNL A   1       9.952   1.107  25.435  1.00  0.00    +0.000 C 
ATOM      7  C6  UNL A   1      10.425   0.923  23.957  1.00  0.00    +0.000 C 
ATOM      8  C7  UNL A   1      12.303   0.859  24.051  1.00  0.00    +0.000 C 
ATOM      9  C8  UNL A   1      13.439   1.307  22.546  1.00  0.00    +0.000 C 
ATOM     10  C9  UNL A   1      12.616   1.878  20.881  1.00  0.00    +0.000 C 
ATOM     11  C10 UNL A   1      10.658   1.913  20.698  1.00  0.00    +0.000 C 
ATOM    139  H35 UNL A   1       7.878   0.448  22.436  1.00  0.00    +0.000 H 
ATOM    140  H36 UNL A   1       7.652   2.002  21.588  1.00  0.00    +0.000 H 
ATOM     13  C12 UNL A   1       9.932   0.655  19.797  1.00  0.00    +0.000 C 
ATOM    137  H33 UNL A   1       8.306  -0.567  20.522  1.00  0.00    +0.000 H 
ATOM    144  H40 UNL A   1      12.997   1.396  26.102  1.00  0.00    +0.000 H 
ATOM    145  H41 UNL A   1      14.269   1.000  25.361  1.00  0.00    +0.000 H 
ATOM    138  H34 UNL A   1       7.815   0.946  19.719  1.00  0.00    +0.000 H 
ATOM     22  C21 UNL A   1       8.494   0.479  20.401  1.00  0.00    +0.000 C 
ATOM     23  C22 UNL A   1       8.296   1.163  21.759  1.00  0.00    +0.000 C 
ATOM     24  C23 UNL A   1       9.593   1.723  22.387  1.00  0.00    +0.000 C 
ATOM     26  C25 UNL A   1      13.225   0.808  25.237  1.00  0.00    +0.000 C 
ATOM     27  C26 UNL A   1      12.437  -0.436  24.970  1.00  0.00    +0.000 C 
ATOM    108  H4  UNL A   1      12.023  -0.178  26.998  1.00  0.00    +0.000 H 
ATOM    109  H5  UNL A   1       9.564  -0.977  25.624  1.00  0.00    +0.000 H 
ATOM    111  H7  UNL A   1      10.553   1.849  25.915  1.00  0.00    +0.000 H 
ATOM    112  H8  UNL A   1       8.928   1.421  25.451  1.00  0.00    +0.000 H 
ATOM    113  H9  UNL A   1       9.941   0.032  23.614  1.00  0.00    +0.000 H 
ATOM    114  H10 UNL A   1      14.023   0.439  22.325  1.00  0.00    +0.000 H 
ATOM    115  H11 UNL A   1      13.974   2.172  22.877  1.00  0.00    +0.000 H 
ATOM    116  H12 UNL A   1      12.984   1.225  20.117  1.00  0.00    +0.000 H 
ATOM    117  H13 UNL A   1      12.882   2.912  20.822  1.00  0.00    +0.000 H 
ATOM    121  H17 UNL A   1      10.101   0.998  18.798  1.00  0.00    +0.000 H 
BRANCH    3    2
ATOM      2  C2  UNL A   1      11.634  -2.199  26.746  1.00  0.00    +0.000 C 
ATOM    107  H3  UNL A   1      10.922  -2.852  26.385  1.00  0.00    +0.000 H 
BRANCH    2    1
ATOM      1  C1  UNL A   1      12.526  -2.716  27.606  1.00  0.00    +0.000 C 
ATOM    106  H2  UNL A   1      12.257  -3.498  28.222  1.00  0.00    +0.000 H 
ATOM    105  H1  UNL A   1      13.484  -2.332  27.649  1.00  0.00    +0.000 H 
ENDBRANCH    2    1
ENDBRANCH    3    2
BRANCH    4    5
ATOM      5  O1  UNL A   1       9.551  -0.043  27.485  1.00  0.00    +0.000 O 
ATOM    110  H6  UNL A   1       8.582  -0.069  27.441  1.00  0.00    +0.000 H 
ENDBRANCH    4    5
BRANCH   11   12
ATOM     12  C11 UNL A   1      10.535   3.004  19.547  1.00  0.00    +0.000 C 
ATOM    118  H14 UNL A   1      11.039   2.656  18.670  1.00  0.00    +0.000 H 
ATOM    119  H15 UNL A   1      10.979   3.920  19.875  1.00  0.00    +0.000 H 
ATOM    120  H16 UNL A   1       9.501   3.169  19.322  1.00  0.00    +0.000 H 
ENDBRANCH   11   12
BRANCH   13   14
ATOM    122  H18 UNL A   1      11.529  -0.420  19.541  1.00  0.00    +0.000 H 
ATOM     14  C13 UNL A   1      10.619  -0.617  19.013  1.00  0.00    +0.000 C 
BRANCH   14   15
ATOM    123  H19 UNL A   1       9.936  -1.293  17.090  1.00  0.00    +0.000 H 
ATOM    124  H20 UNL A   1      11.476  -0.468  17.047  1.00  0.00    +0.000 H 
ATOM    125  H21 UNL A   1      10.000   0.445  17.250  1.00  0.00    +0.000 H 
ATOM     15  C14 UNL A   1      10.499  -0.472  17.483  1.00  0.00    +0.000 C 
ENDBRANCH   14   15
BRANCH   14   16
ATOM    126  H22 UNL A   1      11.365  -2.276  20.174  1.00  0.00    +0.000 H 
ATOM    127  H23 UNL A   1      10.836  -2.632  18.446  1.00  0.00    +0.000 H 
ATOM     16  C15 UNL A   1      10.644  -2.168  19.391  1.00  0.00    +0.000 C 
BRANCH   16   17
ATOM     17  C16 UNL A   1       9.364  -2.912  19.871  1.00  0.00    +0.000 C 
ATOM    129  H25 UNL A   1       9.383  -2.804  20.935  1.00  0.00    +0.000 H 
ATOM    128  H24 UNL A   1       8.532  -2.466  19.365  1.00  0.00    +0.000 H 
BRANCH   17   18
ATOM     18  C17 UNL A   1       9.268  -4.421  19.650  1.00  0.00    +0.000 C 
ATOM    130  H26 UNL A   1       8.850  -4.956  20.428  1.00  0.00    +0.000 H 
BRANCH   18   19
ATOM     19  C18 UNL A   1       9.652  -5.160  18.578  1.00  0.00    +0.000 C 
BRANCH   19   20
ATOM    133  H29 UNL A   1      10.932  -6.601  17.692  1.00  0.00    +0.000 H 
ATOM    131  H27 UNL A   1      10.532  -6.922  19.364  1.00  0.00    +0.000 H 
ATOM     20  C19 UNL A   1      10.781  -6.159  18.655  1.00  0.00    +0.000 C 
ATOM    132  H28 UNL A   1      11.677  -5.663  18.965  1.00  0.00    +0.000 H 
ENDBRANCH   19   20
BRANCH   19   21
ATOM     21  C20 UNL A   1       9.115  -5.080  17.179  1.00  0.00    +0.000 C 
ATOM    134  H30 UNL A   1       8.960  -4.056  16.915  1.00  0.00    +0.000 H 
ATOM    135  H31 UNL A   1       8.187  -5.609  17.123  1.00  0.00    +0.000 H 
ATOM    136  H32 UNL A   1       9.818  -5.520  16.502  1.00  0.00    +0.000 H 
ENDBRANCH   19   21
ENDBRANCH   18   19
ENDBRANCH   17   18
ENDBRANCH   16   17
ENDBRANCH   14   16
ENDBRANCH   13   14
BRANCH   24   25
ATOM     25  C24 UNL A   1       8.951   2.781  23.374  1.00  0.00    +0.000 C 
ATOM    141  H37 UNL A   1       8.026   3.131  22.969  1.00  0.00    +0.000 H 
ATOM    142  H38 UNL A   1       9.622   3.606  23.497  1.00  0.00    +0.000 H 
ATOM    143  H39 UNL A   1       8.774   2.321  24.323  1.00  0.00    +0.000 H 
ENDBRANCH   24   25
ENDBRANCH   28   27
ENDBRANCH   29   28
ENDBRANCH   30   29
ENDBRANCH   32   30
ENDBRANCH   33   32
ENDBRANCH   34   33
ENDBRANCH   35   34
ENDBRANCH   36   35
ENDBRANCH   37   36
ENDBRANCH   38   37
ENDBRANCH   39   38
ENDBRANCH   40   39
ENDBRANCH   42   40
ENDBRANCH   46   45
BRANCH   50   51
ATOM     51  C45 UNL A   1       4.552  -2.089  26.476  1.00  0.00    +0.000 C 
ATOM     52  C46 UNL A   1       5.598  -1.265  26.027  1.00  0.00    +0.000 C 
ATOM     53  F1  UNL A   1       6.709  -1.122  26.766  1.00  0.00    +0.000 F 
ATOM     54  C47 UNL A   1       5.483  -0.534  24.849  1.00  0.00    +0.000 C 
ATOM     55  F2  UNL A   1       6.466   0.301  24.482  1.00  0.00    +0.000 F 
ATOM     56  C48 UNL A   1       4.342  -0.647  24.069  1.00  0.00    +0.000 C 
ATOM     57  F3  UNL A   1       4.233   0.056  22.933  1.00  0.00    +0.000 F 
ATOM     58  C49 UNL A   1       3.311  -1.481  24.473  1.00  0.00    +0.000 C 
ATOM     59  F4  UNL A   1       2.212  -1.599  23.715  1.00  0.00    +0.000 F 
ATOM     60  C50 UNL A   1       3.406  -2.185  25.672  1.00  0.00    +0.000 C 
ATOM     61  F5  UNL A   1       2.375  -2.954  26.051  1.00  0.00    +0.000 F 
ENDBRANCH   50   51
BRANCH   67   68
ATOM     68  C56 UNL A   1       2.807  -1.246  33.419  1.00  0.00    +0.000 C 
ATOM     69  C57 UNL A   1       3.523  -0.245  34.088  1.00  0.00    +0.000 C 
ATOM     70  F6  UNL A   1       4.863  -0.235  34.055  1.00  0.00    +0.000 F 
ATOM     71  C58 UNL A   1       2.860   0.737  34.817  1.00  0.00    +0.000 C 
ATOM     72  F7  UNL A   1       3.563   1.663  35.484  1.00  0.00    +0.000 F 
ATOM     73  C59 UNL A   1       1.473   0.755  34.860  1.00  0.00    +0.000 C 
ATOM     74  F8  UNL A   1       0.836   1.712  35.550  1.00  0.00    +0.000 F 
ATOM     75  C60 UNL A   1       0.746  -0.218  34.193  1.00  0.00    +0.000 C 
ATOM     76  F9  UNL A   1      -0.593  -0.190  34.216  1.00  0.00    +0.000 F 
ATOM     77  C61 UNL A   1       1.405  -1.221  33.491  1.00  0.00    +0.000 C 
ATOM     78  F10 UNL A   1       0.678  -2.151  32.855  1.00  0.00    +0.000 F 
ENDBRANCH   67   68
BRANCH   82   83
ATOM     83  C65 UNL A   1       5.620  -7.455  34.922  1.00  0.00    +0.000 C 
ATOM     84  C66 UNL A   1       6.809  -7.375  35.662  1.00  0.00    +0.000 C 
ATOM     85  F11 UNL A   1       7.815  -6.601  35.231  1.00  0.00    +0.000 F 
ATOM     86  C67 UNL A   1       6.985  -8.120  36.826  1.00  0.00    +0.000 C 
ATOM     87  F12 UNL A   1       8.149  -8.060  37.487  1.00  0.00    +0.000 F 
ATOM     88  C68 UNL A   1       5.965  -8.935  37.293  1.00  0.00    +0.000 C 
ATOM     89  F13 UNL A   1       6.135  -9.650  38.413  1.00  0.00    +0.000 F 
ATOM     90  C69 UNL A   1       4.772  -9.014  36.590  1.00  0.00    +0.000 C 
ATOM     91  F14 UNL A   1       3.778  -9.788  37.045  1.00  0.00    +0.000 F 
ATOM     92  C70 UNL A   1       4.605  -8.290  35.410  1.00  0.00    +0.000 C 
ATOM     93  F15 UNL A   1       3.445  -8.395  34.746  1.00  0.00    +0.000 F 
ENDBRANCH   82   83
TORSDOF 30
ENDMDL
MODEL 4
REMARK VINA RESULT:      -8.5     61.309     68.474
ROOT
ATOM    166  H62 UNL A   1       3.351  -3.023  35.450  1.00  0.00    +0.000 H 
ATOM    167  H63 UNL A   1       4.566  -5.294  35.856  1.00  0.00    +0.000 H 
ATOM    168  H64 UNL A   1       4.570  -4.536  31.789  1.00  0.00    +0.000 H 
ATOM    169  H65 UNL A   1       6.002  -6.480  25.834  1.00  0.00    +0.000 H 
ATOM    170  H66 UNL A   1       4.758  -4.297  25.452  1.00  0.00    +0.000 H 
ATOM    171  H67 UNL A   1       4.894  -4.979  29.549  1.00  0.00    +0.000 H 
ATOM    172  H68 UNL A   1       7.269  -9.300  30.244  1.00  0.00    +0.000 H 
ATOM    173  H69 UNL A   1       6.696  -9.033  32.724  1.00  0.00    +0.000 H 
ATOM     46  C41 UNL A   1       3.780  -3.082  27.844  1.00  0.00    +0.000 C 
ATOM     47  C42 UNL A   1       3.443  -2.575  29.221  1.00  0.00    +0.000 C 
ATOM     48  N3  UNL A   1       3.795  -3.042  30.389  1.00  0.00    +0.000 N 
ATOM    175  H71 UNL A   1       2.170  -0.823  28.535  1.00  0.00    +0.000 H 
ATOM     49  C43 UNL A   1       3.308  -2.127  31.314  1.00  0.00    +0.000 C 
ATOM    174  H70 UNL A   1       2.417  -0.140  30.995  1.00  0.00    +0.000 H 
ATOM     50  C44 UNL A   1       3.293  -2.222  32.663  1.00  0.00    +0.000 C 
ATOM     62  C51 UNL A   1       3.800  -3.363  33.369  1.00  0.00    +0.000 C 
ATOM     63  C52 UNL A   1       3.769  -3.625  34.725  1.00  0.00    +0.000 C 
ATOM     64  C53 UNL A   1       4.406  -4.851  34.938  1.00  0.00    +0.000 C 
ATOM     65  C54 UNL A   1       4.787  -5.376  33.711  1.00  0.00    +0.000 C 
ATOM     66  N4  UNL A   1       4.418  -4.445  32.758  1.00  0.00    +0.000 N 
ATOM     67  C55 UNL A   1       5.435  -6.632  33.435  1.00  0.00    +0.000 C 
ATOM     79  C62 UNL A   1       5.798  -7.089  32.210  1.00  0.00    +0.000 C 
ATOM     80  N5  UNL A   1       5.630  -6.500  30.965  1.00  0.00    +0.000 N 
ATOM     81  C63 UNL A   1       6.163  -7.327  30.096  1.00  0.00    +0.000 C 
ATOM     82  C64 UNL A   1       6.236  -7.214  28.595  1.00  0.00    +0.000 C 
ATOM     94  C71 UNL A   1       5.661  -6.149  28.007  1.00  0.00    +0.000 C 
ATOM     95  C72 UNL A   1       5.600  -5.882  26.572  1.00  0.00    +0.000 C 
ATOM     96  C73 UNL A   1       4.934  -4.733  26.370  1.00  0.00    +0.000 C 
ATOM     97  C74 UNL A   1       4.500  -4.201  27.662  1.00  0.00    +0.000 C 
ATOM     98  N6  UNL A   1       5.000  -5.090  28.576  1.00  0.00    +0.000 N 
ATOM     99  C75 UNL A   1       6.759  -8.525  30.699  1.00  0.00    +0.000 C 
ATOM    100  C76 UNL A   1       6.470  -8.352  31.981  1.00  0.00    +0.000 C 
ATOM    101  C77 UNL A   1       2.729  -1.031  30.578  1.00  0.00    +0.000 C 
ATOM    102  C78 UNL A   1       2.654  -1.330  29.292  1.00  0.00    +0.000 C 
ENDROOT
BRANCH   46   45
ATOM    164  H60 UNL A   1       4.470   0.012  24.477  1.00  0.00    +0.000 H 
ATOM    165  H61 UNL A   1       5.109  -1.073  26.564  1.00  0.00    +0.000 H 
ATOM    103  C79 UNL A   1       2.134  -2.579  26.087  1.00  0.00    +0.000 C 
ATOM    104  C80 UNL A   1       1.838  -2.065  24.844  1.00  0.00    +0.000 C 
ATOM     42  C37 UNL A   1       2.687  -1.109  24.273  1.00  0.00    +0.000 C 
ATOM     43  C38 UNL A   1       3.868  -0.714  24.898  1.00  0.00    +0.000 C 
ATOM     44  C39 UNL A   1       4.219  -1.319  26.102  1.00  0.00    +0.000 C 
ATOM     45  C40 UNL A   1       3.360  -2.264  26.689  1.00  0.00    +0.000 C 
ATOM    176  H72 UNL A   1       1.460  -3.192  26.572  1.00  0.00    +0.000 H 
ATOM    177  H73 UNL A   1       0.997  -2.382  24.337  1.00  0.00    +0.000 H 
BRANCH   42   40
ATOM     41  O3  UNL A   1       2.637  -0.608  21.963  1.00  0.00    +0.000 O 
ATOM     40  C36 UNL A   1       2.201  -0.404  23.065  1.00  0.00    +0.000 C 
BRANCH   40   39
ATOM    163  H59 UNL A   1       0.313   0.198  23.634  1.00  0.00    +0.000 H 
ATOM     39  N2  UNL A   1       1.193   0.507  23.321  1.00  0.00    +0.000 N 
BRANCH   39   38
ATOM    161  H57 UNL A   1       2.185   2.056  22.365  1.00  0.00    +0.000 H 
ATOM    162  H58 UNL A   1       0.549   2.420  22.813  1.00  0.00    +0.000 H 
ATOM     38  C35 UNL A   1       1.443   1.920  23.124  1.00  0.00    +0.000 C 
BRANCH   38   37
ATOM     37  C34 UNL A   1       1.937   2.484  24.433  1.00  0.00    +0.000 C 
ATOM    159  H55 UNL A   1       1.156   3.076  24.862  1.00  0.00    +0.000 H 
ATOM    160  H56 UNL A   1       2.204   1.653  25.051  1.00  0.00    +0.000 H 
BRANCH   37   36
ATOM     36  C33 UNL A   1       3.224   3.386  24.288  1.00  0.00    +0.000 C 
ATOM    157  H53 UNL A   1       3.716   3.048  23.400  1.00  0.00    +0.000 H 
ATOM    158  H54 UNL A   1       2.792   4.364  24.341  1.00  0.00    +0.000 H 
BRANCH   36   35
ATOM     35  C32 UNL A   1       4.417   3.507  25.447  1.00  0.00    +0.000 C 
ATOM    156  H52 UNL A   1       3.740   3.603  26.271  1.00  0.00    +0.000 H 
ATOM    155  H51 UNL A   1       5.104   4.202  25.011  1.00  0.00    +0.000 H 
BRANCH   35   34
ATOM    153  H49 UNL A   1       5.261   2.447  27.315  1.00  0.00    +0.000 H 
ATOM     34  C31 UNL A   1       5.529   2.307  26.289  1.00  0.00    +0.000 C 
ATOM    154  H50 UNL A   1       5.372   1.556  25.544  1.00  0.00    +0.000 H 
BRANCH   34   33
ATOM     33  C30 UNL A   1       7.582   1.877  26.443  1.00  0.00    +0.000 C 
ATOM    151  H47 UNL A   1       7.584   1.039  27.109  1.00  0.00    +0.000 H 
ATOM    152  H48 UNL A   1       7.756   2.010  25.396  1.00  0.00    +0.000 H 
BRANCH   33   32
ATOM    150  H46 UNL A   1       8.701   3.530  27.123  1.00  0.00    +0.000 H 
ATOM     32  N1  UNL A   1       8.859   2.600  26.841  1.00  0.00    +0.000 N 
BRANCH   32   30
ATOM     30  C29 UNL A   1      10.170   2.250  26.894  1.00  0.00    +0.000 C 
ATOM     31  O2  UNL A   1      10.710   2.428  27.994  1.00  0.00    +0.000 O 
BRANCH   30   29
ATOM    149  H45 UNL A   1      11.327   0.750  26.235  1.00  0.00    +0.000 H 
ATOM    148  H44 UNL A   1      11.648   2.417  25.447  1.00  0.00    +0.000 H 
ATOM     29  C28 UNL A   1      10.980   1.645  25.762  1.00  0.00    +0.000 C 
BRANCH   29   28
ATOM    146  H42 UNL A   1      10.432  -0.006  24.556  1.00  0.00    +0.000 H 
ATOM    147  H43 UNL A   1       9.416   1.480  24.396  1.00  0.00    +0.000 H 
ATOM     28  C27 UNL A   1      10.398   1.059  24.469  1.00  0.00    +0.000 C 
BRANCH   28   27
ATOM      3  C3  UNL A   1      10.395   2.614  22.377  1.00  0.00    +0.000 C 
ATOM      4  C4  UNL A   1       9.823   2.225  20.992  1.00  0.00    +0.000 C 
ATOM      6  C5  UNL A   1      10.625   1.146  20.264  1.00  0.00    +0.000 C 
ATOM      7  C6  UNL A   1      10.623  -0.157  21.127  1.00  0.00    +0.000 C 
ATOM      8  C7  UNL A   1      11.830   0.186  22.529  1.00  0.00    +0.000 C 
ATOM      9  C8  UNL A   1      12.731  -1.228  23.501  1.00  0.00    +0.000 C 
ATOM     10  C9  UNL A   1      12.408  -3.075  22.991  1.00  0.00    +0.000 C 
ATOM     11  C10 UNL A   1      11.117  -3.506  21.570  1.00  0.00    +0.000 C 
ATOM    139  H35 UNL A   1       8.404  -1.802  19.947  1.00  0.00    +0.000 H 
ATOM    140  H36 UNL A   1       9.302  -3.057  19.053  1.00  0.00    +0.000 H 
ATOM     13  C12 UNL A   1       9.597  -4.120  22.053  1.00  0.00    +0.000 C 
ATOM    137  H33 UNL A   1       7.705  -3.304  21.408  1.00  0.00    +0.000 H 
ATOM    144  H40 UNL A   1      12.934   2.088  22.156  1.00  0.00    +0.000 H 
ATOM    145  H41 UNL A   1      13.393   1.647  23.542  1.00  0.00    +0.000 H 
ATOM    138  H34 UNL A   1       8.403  -4.539  20.329  1.00  0.00    +0.000 H 
ATOM     22  C21 UNL A   1       8.589  -3.676  20.934  1.00  0.00    +0.000 C 
ATOM     23  C22 UNL A   1       9.128  -2.588  19.999  1.00  0.00    +0.000 C 
ATOM     24  C23 UNL A   1      10.476  -1.976  20.443  1.00  0.00    +0.000 C 
ATOM     26  C25 UNL A   1      12.545   1.449  22.921  1.00  0.00    +0.000 C 
ATOM     27  C26 UNL A   1      11.071   1.429  23.178  1.00  0.00    +0.000 C 
ATOM    108  H4  UNL A   1      11.233   3.244  22.164  1.00  0.00    +0.000 H 
ATOM    109  H5  UNL A   1       8.849   1.836  21.210  1.00  0.00    +0.000 H 
ATOM    111  H7  UNL A   1      11.631   1.481  20.121  1.00  0.00    +0.000 H 
ATOM    112  H8  UNL A   1      10.183   0.948  19.309  1.00  0.00    +0.000 H 
ATOM    113  H9  UNL A   1       9.603  -0.306  21.411  1.00  0.00    +0.000 H 
ATOM    114  H10 UNL A   1      12.448  -1.133  24.528  1.00  0.00    +0.000 H 
ATOM    115  H11 UNL A   1      13.765  -1.077  23.273  1.00  0.00    +0.000 H 
ATOM    116  H12 UNL A   1      12.076  -3.584  23.872  1.00  0.00    +0.000 H 
ATOM    117  H13 UNL A   1      13.343  -3.376  22.566  1.00  0.00    +0.000 H 
ATOM    121  H17 UNL A   1       9.842  -5.145  22.237  1.00  0.00    +0.000 H 
BRANCH    3    2
ATOM      2  C2  UNL A   1       9.450   3.497  23.190  1.00  0.00    +0.000 C 
ATOM    107  H3  UNL A   1       9.896   4.154  23.849  1.00  0.00    +0.000 H 
BRANCH    2    1
ATOM      1  C1  UNL A   1       8.108   3.523  23.150  1.00  0.00    +0.000 C 
ATOM    106  H2  UNL A   1       7.574   2.641  23.181  1.00  0.00    +0.000 H 
ATOM    105  H1  UNL A   1       7.610   4.425  23.089  1.00  0.00    +0.000 H 
ENDBRANCH    2    1
ENDBRANCH    3    2
BRANCH    4    5
ATOM      5  O1  UNL A   1       9.758   3.362  20.121  1.00  0.00    +0.000 O 
ATOM    110  H6  UNL A   1       9.637   3.062  19.206  1.00  0.00    +0.000 H 
ENDBRANCH    4    5
BRANCH   11   12
ATOM     12  C11 UNL A   1      11.704  -4.913  21.118  1.00  0.00    +0.000 C 
ATOM    118  H14 UNL A   1      10.993  -5.682  21.334  1.00  0.00    +0.000 H 
ATOM    119  H15 UNL A   1      12.612  -5.108  21.648  1.00  0.00    +0.000 H 
ATOM    120  H16 UNL A   1      11.901  -4.895  20.066  1.00  0.00    +0.000 H 
ENDBRANCH   11   12
BRANCH   13   14
ATOM    122  H18 UNL A   1       9.904  -4.011  23.967  1.00  0.00    +0.000 H 
ATOM     14  C13 UNL A   1       9.015  -4.441  23.558  1.00  0.00    +0.000 C 
BRANCH   14   15
ATOM    123  H19 UNL A   1       7.613  -6.032  23.914  1.00  0.00    +0.000 H 
ATOM    124  H20 UNL A   1       9.214  -6.342  24.542  1.00  0.00    +0.000 H 
ATOM    125  H21 UNL A   1       8.911  -6.459  22.825  1.00  0.00    +0.000 H 
ATOM     15  C14 UNL A   1       8.661  -5.932  23.723  1.00  0.00    +0.000 C 
ENDBRANCH   14   15
BRANCH   14   16
ATOM    126  H22 UNL A   1       7.296  -4.230  24.846  1.00  0.00    +0.000 H 
ATOM    127  H23 UNL A   1       7.796  -2.754  23.865  1.00  0.00    +0.000 H 
ATOM     16  C15 UNL A   1       8.065  -3.571  24.501  1.00  0.00    +0.000 C 
BRANCH   16   17
ATOM     17  C16 UNL A   1       8.613  -2.842  25.762  1.00  0.00    +0.000 C 
ATOM    129  H25 UNL A   1       8.389  -1.810  25.585  1.00  0.00    +0.000 H 
ATOM    128  H24 UNL A   1       8.141  -3.288  26.614  1.00  0.00    +0.000 H 
BRANCH   17   18
ATOM     18  C17 UNL A   1      10.119  -2.858  26.021  1.00  0.00    +0.000 C 
ATOM    130  H26 UNL A   1      10.677  -3.402  25.345  1.00  0.00    +0.000 H 
BRANCH   18   19
ATOM     19  C18 UNL A   1      10.828  -2.260  27.013  1.00  0.00    +0.000 C 
BRANCH   19   20
ATOM    133  H29 UNL A   1       9.258  -1.915  28.397  1.00  0.00    +0.000 H 
ATOM    131  H27 UNL A   1       9.937  -0.463  27.702  1.00  0.00    +0.000 H 
ATOM     20  C19 UNL A   1      10.163  -1.435  28.088  1.00  0.00    +0.000 C 
ATOM    132  H28 UNL A   1      10.822  -1.342  28.926  1.00  0.00    +0.000 H 
ENDBRANCH   19   20
BRANCH   19   21
ATOM     21  C20 UNL A   1      12.319  -2.241  27.181  1.00  0.00    +0.000 C 
ATOM    134  H30 UNL A   1      12.572  -1.668  28.048  1.00  0.00    +0.000 H 
ATOM    135  H31 UNL A   1      12.769  -1.799  26.317  1.00  0.00    +0.000 H 
ATOM    136  H32 UNL A   1      12.677  -3.243  27.299  1.00  0.00    +0.000 H 
ENDBRANCH   19   21
ENDBRANCH   18   19
ENDBRANCH   17   18
ENDBRANCH   16   17
ENDBRANCH   14   16
ENDBRANCH   13   14
BRANCH   24   25
ATOM     25  C24 UNL A   1      10.954  -1.398  19.050  1.00  0.00    +0.000 C 
ATOM    141  H37 UNL A   1      10.333  -1.786  18.270  1.00  0.00    +0.000 H 
ATOM    142  H38 UNL A   1      11.970  -1.686  18.873  1.00  0.00    +0.000 H 
ATOM    143  H39 UNL A   1      10.884  -0.330  19.063  1.00  0.00    +0.000 H 
ENDBRANCH   24   25
ENDBRANCH   28   27
ENDBRANCH   29   28
ENDBRANCH   30   29
ENDBRANCH   32   30
ENDBRANCH   33   32
ENDBRANCH   34   33
ENDBRANCH   35   34
ENDBRANCH   36   35
ENDBRANCH   37   36
ENDBRANCH   38   37
ENDBRANCH   39   38
ENDBRANCH   40   39
ENDBRANCH   42   40
ENDBRANCH   46   45
BRANCH   50   51
ATOM     51  C45 UNL A   1       2.689  -1.085  33.433  1.00  0.00    +0.000 C 
ATOM     52  C46 UNL A   1       1.298  -0.932  33.562  1.00  0.00    +0.000 C 
ATOM     53  F1  UNL A   1       0.466  -1.811  32.983  1.00  0.00    +0.000 F 
ATOM     54  C47 UNL A   1       0.753   0.160  34.231  1.00  0.00    +0.000 C 
ATOM     55  F2  UNL A   1      -0.577   0.320  34.276  1.00  0.00    +0.000 F 
ATOM     56  C48 UNL A   1       1.584   1.095  34.828  1.00  0.00    +0.000 C 
ATOM     57  F3  UNL A   1       1.059   2.145  35.474  1.00  0.00    +0.000 F 
ATOM     58  C49 UNL A   1       2.961   0.947  34.745  1.00  0.00    +0.000 C 
ATOM     59  F4  UNL A   1       3.765   1.845  35.330  1.00  0.00    +0.000 F 
ATOM     60  C50 UNL A   1       3.510  -0.124  34.043  1.00  0.00    +0.000 C 
ATOM     61  F5  UNL A   1       4.844  -0.217  33.951  1.00  0.00    +0.000 F 
ENDBRANCH   50   51
BRANCH   67   68
ATOM     68  C56 UNL A   1       5.719  -7.518  34.610  1.00  0.00    +0.000 C 
ATOM     69  C57 UNL A   1       4.868  -8.578  34.951  1.00  0.00    +0.000 C 
ATOM     70  F6  UNL A   1       3.725  -8.771  34.277  1.00  0.00    +0.000 F 
ATOM     71  C58 UNL A   1       5.180  -9.428  36.007  1.00  0.00    +0.000 C 
ATOM     72  F7  UNL A   1       4.335 -10.412  36.343  1.00  0.00    +0.000 F 
ATOM     73  C59 UNL A   1       6.361  -9.256  36.714  1.00  0.00    +0.000 C 
ATOM     74  F8  UNL A   1       6.667 -10.088  37.720  1.00  0.00    +0.000 F 
ATOM     75  C60 UNL A   1       7.223  -8.222  36.383  1.00  0.00    +0.000 C 
ATOM     76  F9  UNL A   1       8.374  -8.067  37.052  1.00  0.00    +0.000 F 
ATOM     77  C61 UNL A   1       6.899  -7.350  35.350  1.00  0.00    +0.000 C 
ATOM     78  F10 UNL A   1       7.750  -6.357  35.051  1.00  0.00    +0.000 F 
ENDBRANCH   67   68
BRANCH   82   83
ATOM     83  C65 UNL A   1       6.873  -8.271  27.767  1.00  0.00    +0.000 C 
ATOM     84  C66 UNL A   1       6.283  -9.537  27.637  1.00  0.00    +0.000 C 
ATOM     85  F11 UNL A   1       5.137  -9.810  28.276  1.00  0.00    +0.000 F 
ATOM     86  C67 UNL A   1       6.888 -10.541  26.882  1.00  0.00    +0.000 C 
ATOM     87  F12 UNL A   1       6.326 -11.755  26.815  1.00  0.00    +0.000 F 
ATOM     88  C68 UNL A   1       8.077 -10.290  26.216  1.00  0.00    +0.000 C 
ATOM     89  F13 UNL A   1       8.658 -11.255  25.489  1.00  0.00    +0.000 F 
ATOM     90  C69 UNL A   1       8.669  -9.039  26.311  1.00  0.00    +0.000 C 
ATOM     91  F14 UNL A   1       9.810  -8.788  25.656  1.00  0.00    +0.000 F 
ATOM     92  C70 UNL A   1       8.079  -8.043  27.088  1.00  0.00    +0.000 C 
ATOM     93  F15 UNL A   1       8.680  -6.847  27.171  1.00  0.00    +0.000 F 
ENDBRANCH   82   83
TORSDOF 30
ENDMDL
MODEL 5
REMARK VINA RESULT:      -8.5     33.564     40.245
ROOT
ATOM    166  H62 UNL A   1      18.686  33.859  47.757  1.00  0.00    +0.000 H 
ATOM    167  H63 UNL A   1      16.906  35.300  49.003  1.00  0.00    +0.000 H 
ATOM    168  H64 UNL A   1      20.231  37.664  48.319  1.00  0.00    +0.000 H 
ATOM    169  H65 UNL A   1      23.232  43.292  49.099  1.00  0.00    +0.000 H 
ATOM    170  H66 UNL A   1      24.980  41.854  47.942  1.00  0.00    +0.000 H 
ATOM    171  H67 UNL A   1      21.581  39.526  48.488  1.00  0.00    +0.000 H 
ATOM    172  H68 UNL A   1      18.217  42.358  50.823  1.00  0.00    +0.000 H 
ATOM    173  H69 UNL A   1      16.763  40.255  50.940  1.00  0.00    +0.000 H 
ATOM     46  C41 UNL A   1      24.152  39.160  47.485  1.00  0.00    +0.000 C 
ATOM     47  C42 UNL A   1      23.481  37.830  47.259  1.00  0.00    +0.000 C 
ATOM     48  N3  UNL A   1      22.241  37.477  47.472  1.00  0.00    +0.000 N 
ATOM    175  H71 UNL A   1      25.322  36.754  46.477  1.00  0.00    +0.000 H 
ATOM     49  C43 UNL A   1      22.138  36.182  46.982  1.00  0.00    +0.000 C 
ATOM    174  H70 UNL A   1      23.573  35.005  45.798  1.00  0.00    +0.000 H 
ATOM     50  C44 UNL A   1      21.098  35.324  47.085  1.00  0.00    +0.000 C 
ATOM     62  C51 UNL A   1      19.883  35.652  47.773  1.00  0.00    +0.000 C 
ATOM     63  C52 UNL A   1      18.788  34.850  48.025  1.00  0.00    +0.000 C 
ATOM     64  C53 UNL A   1      17.842  35.619  48.709  1.00  0.00    +0.000 C 
ATOM     65  C54 UNL A   1      18.369  36.884  48.927  1.00  0.00    +0.000 C 
ATOM     66  N4  UNL A   1      19.619  36.893  48.337  1.00  0.00    +0.000 N 
ATOM     67  C55 UNL A   1      17.774  37.996  49.623  1.00  0.00    +0.000 C 
ATOM     79  C62 UNL A   1      18.333  39.220  49.795  1.00  0.00    +0.000 C 
ATOM     80  N5  UNL A   1      19.570  39.689  49.377  1.00  0.00    +0.000 N 
ATOM     81  C63 UNL A   1      19.637  40.939  49.771  1.00  0.00    +0.000 C 
ATOM     82  C64 UNL A   1      20.766  41.927  49.618  1.00  0.00    +0.000 C 
ATOM     94  C71 UNL A   1      21.903  41.509  49.032  1.00  0.00    +0.000 C 
ATOM     95  C72 UNL A   1      23.111  42.305  48.825  1.00  0.00    +0.000 C 
ATOM     96  C73 UNL A   1      24.038  41.542  48.222  1.00  0.00    +0.000 C 
ATOM     97  C74 UNL A   1      23.494  40.197  48.028  1.00  0.00    +0.000 C 
ATOM     98  N6  UNL A   1      22.216  40.279  48.511  1.00  0.00    +0.000 N 
ATOM     99  C75 UNL A   1      18.430  41.416  50.457  1.00  0.00    +0.000 C 
ATOM    100  C76 UNL A   1      17.687  40.318  50.484  1.00  0.00    +0.000 C 
ATOM    101  C77 UNL A   1      23.400  35.847  46.370  1.00  0.00    +0.000 C 
ATOM    102  C78 UNL A   1      24.305  36.770  46.647  1.00  0.00    +0.000 C 
ENDROOT
BRANCH   46   45
ATOM    164  H60 UNL A   1      27.400  40.654  44.553  1.00  0.00    +0.000 H 
ATOM    165  H61 UNL A   1      25.084  40.148  45.119  1.00  0.00    +0.000 H 
ATOM    103  C79 UNL A   1      26.567  38.985  47.911  1.00  0.00    +0.000 C 
ATOM    104  C80 UNL A   1      27.856  39.392  47.646  1.00  0.00    +0.000 C 
ATOM     42  C37 UNL A   1      28.153  39.985  46.413  1.00  0.00    +0.000 C 
ATOM     43  C38 UNL A   1      27.162  40.241  45.468  1.00  0.00    +0.000 C 
ATOM     44  C39 UNL A   1      25.842  39.930  45.786  1.00  0.00    +0.000 C 
ATOM     45  C40 UNL A   1      25.542  39.317  47.014  1.00  0.00    +0.000 C 
ATOM    176  H72 UNL A   1      26.357  38.441  48.763  1.00  0.00    +0.000 H 
ATOM    177  H73 UNL A   1      28.598  39.262  48.352  1.00  0.00    +0.000 H 
BRANCH   42   40
ATOM     41  O3  UNL A   1      29.959  40.842  45.151  1.00  0.00    +0.000 O 
ATOM     40  C36 UNL A   1      29.582  40.171  46.076  1.00  0.00    +0.000 C 
BRANCH   40   39
ATOM    163  H59 UNL A   1      30.130  39.190  47.804  1.00  0.00    +0.000 H 
ATOM     39  N2  UNL A   1      30.445  39.507  46.927  1.00  0.00    +0.000 N 
BRANCH   39   38
ATOM    161  H57 UNL A   1      32.059  39.914  45.692  1.00  0.00    +0.000 H 
ATOM    162  H58 UNL A   1      32.489  39.503  47.321  1.00  0.00    +0.000 H 
ATOM     38  C35 UNL A   1      31.816  39.280  46.519  1.00  0.00    +0.000 C 
BRANCH   38   37
ATOM     37  C34 UNL A   1      31.939  37.833  46.112  1.00  0.00    +0.000 C 
ATOM    159  H55 UNL A   1      32.890  37.469  46.440  1.00  0.00    +0.000 H 
ATOM    160  H56 UNL A   1      31.123  37.310  46.566  1.00  0.00    +0.000 H 
BRANCH   37   36
ATOM     36  C33 UNL A   1      31.826  37.602  44.555  1.00  0.00    +0.000 C 
ATOM    157  H53 UNL A   1      32.158  38.512  44.102  1.00  0.00    +0.000 H 
ATOM    158  H54 UNL A   1      32.386  36.696  44.445  1.00  0.00    +0.000 H 
BRANCH   36   35
ATOM     35  C32 UNL A   1      30.413  37.195  43.768  1.00  0.00    +0.000 C 
ATOM    156  H52 UNL A   1      30.628  36.147  43.722  1.00  0.00    +0.000 H 
ATOM    155  H51 UNL A   1      30.344  37.938  43.001  1.00  0.00    +0.000 H 
BRANCH   35   34
ATOM    153  H49 UNL A   1      28.322  37.992  44.329  1.00  0.00    +0.000 H 
ATOM     34  C31 UNL A   1      28.661  36.979  44.286  1.00  0.00    +0.000 C 
ATOM    154  H50 UNL A   1      28.515  36.141  43.637  1.00  0.00    +0.000 H 
BRANCH   34   33
ATOM     33  C30 UNL A   1      27.559  36.098  45.845  1.00  0.00    +0.000 C 
ATOM    151  H47 UNL A   1      27.773  36.751  46.666  1.00  0.00    +0.000 H 
ATOM    152  H48 UNL A   1      26.705  35.916  45.228  1.00  0.00    +0.000 H 
BRANCH   33   32
ATOM    150  H46 UNL A   1      26.599  34.300  46.387  1.00  0.00    +0.000 H 
ATOM     32  N1  UNL A   1      27.464  34.746  46.536  1.00  0.00    +0.000 N 
BRANCH   32   30
ATOM     30  C29 UNL A   1      28.304  34.017  47.313  1.00  0.00    +0.000 C 
ATOM     31  O2  UNL A   1      27.754  33.399  48.235  1.00  0.00    +0.000 O 
BRANCH   30   29
ATOM    149  H45 UNL A   1      30.088  33.537  48.095  1.00  0.00    +0.000 H 
ATOM    148  H44 UNL A   1      30.128  34.815  46.727  1.00  0.00    +0.000 H 
ATOM     29  C28 UNL A   1      29.803  33.876  47.120  1.00  0.00    +0.000 C 
BRANCH   29   28
ATOM    146  H42 UNL A   1      30.119  31.859  46.562  1.00  0.00    +0.000 H 
ATOM    147  H43 UNL A   1      30.258  33.090  45.246  1.00  0.00    +0.000 H 
ATOM     28  C27 UNL A   1      30.491  32.813  46.253  1.00  0.00    +0.000 C 
BRANCH   28   27
ATOM      3  C3  UNL A   1      32.725  33.138  44.951  1.00  0.00    +0.000 C 
ATOM      4  C4  UNL A   1      33.535  31.994  44.294  1.00  0.00    +0.000 C 
ATOM      6  C5  UNL A   1      34.186  31.035  45.291  1.00  0.00    +0.000 C 
ATOM      7  C6  UNL A   1      33.068  30.354  46.145  1.00  0.00    +0.000 C 
ATOM      8  C7  UNL A   1      32.507  31.678  47.358  1.00  0.00    +0.000 C 
ATOM      9  C8  UNL A   1      31.660  31.253  49.049  1.00  0.00    +0.000 C 
ATOM     10  C9  UNL A   1      31.405  29.389  49.533  1.00  0.00    +0.000 C 
ATOM     11  C10 UNL A   1      31.918  27.956  48.286  1.00  0.00    +0.000 C 
ATOM    139  H35 UNL A   1      32.611  27.723  44.770  1.00  0.00    +0.000 H 
ATOM    140  H36 UNL A   1      33.393  26.574  45.889  1.00  0.00    +0.000 H 
ATOM     13  C12 UNL A   1      30.661  27.168  47.438  1.00  0.00    +0.000 C 
ATOM    137  H33 UNL A   1      30.620  26.920  45.294  1.00  0.00    +0.000 H 
ATOM    144  H40 UNL A   1      33.870  33.442  47.268  1.00  0.00    +0.000 H 
ATOM    145  H41 UNL A   1      32.764  33.864  48.229  1.00  0.00    +0.000 H 
ATOM    138  H34 UNL A   1      31.477  25.638  46.187  1.00  0.00    +0.000 H 
ATOM     22  C21 UNL A   1      31.300  26.689  46.087  1.00  0.00    +0.000 C 
ATOM     23  C22 UNL A   1      32.652  27.337  45.767  1.00  0.00    +0.000 C 
ATOM     24  C23 UNL A   1      33.046  28.491  46.716  1.00  0.00    +0.000 C 
ATOM     26  C25 UNL A   1      32.861  33.136  47.452  1.00  0.00    +0.000 C 
ATOM     27  C26 UNL A   1      31.991  32.750  46.297  1.00  0.00    +0.000 C 
ATOM    108  H4  UNL A   1      33.459  33.837  45.292  1.00  0.00    +0.000 H 
ATOM    109  H5  UNL A   1      32.809  31.451  43.724  1.00  0.00    +0.000 H 
ATOM    111  H7  UNL A   1      34.847  31.579  45.933  1.00  0.00    +0.000 H 
ATOM    112  H8  UNL A   1      34.745  30.288  44.765  1.00  0.00    +0.000 H 
ATOM    113  H9  UNL A   1      32.335  30.024  45.438  1.00  0.00    +0.000 H 
ATOM    114  H10 UNL A   1      30.692  31.709  49.037  1.00  0.00    +0.000 H 
ATOM    115  H11 UNL A   1      32.350  31.616  49.780  1.00  0.00    +0.000 H 
ATOM    116  H12 UNL A   1      30.361  29.263  49.732  1.00  0.00    +0.000 H 
ATOM    117  H13 UNL A   1      32.087  29.255  50.347  1.00  0.00    +0.000 H 
ATOM    121  H17 UNL A   1      30.309  26.487  48.185  1.00  0.00    +0.000 H 
BRANCH    3    2
ATOM      2  C2  UNL A   1      31.881  33.926  43.950  1.00  0.00    +0.000 C 
ATOM    107  H3  UNL A   1      31.604  34.877  44.240  1.00  0.00    +0.000 H 
BRANCH    2    1
ATOM      1  C1  UNL A   1      31.458  33.532  42.738  1.00  0.00    +0.000 C 
ATOM    106  H2  UNL A   1      30.927  34.182  42.140  1.00  0.00    +0.000 H 
ATOM    105  H1  UNL A   1      31.666  32.577  42.404  1.00  0.00    +0.000 H 
ENDBRANCH    2    1
ENDBRANCH    3    2
BRANCH    4    5
ATOM      5  O1  UNL A   1      34.582  32.512  43.462  1.00  0.00    +0.000 O 
ATOM    110  H6  UNL A   1      35.100  31.777  43.098  1.00  0.00    +0.000 H 
ENDBRANCH    4    5
BRANCH   11   12
ATOM     12  C11 UNL A   1      32.144  26.782  49.334  1.00  0.00    +0.000 C 
ATOM    118  H14 UNL A   1      31.882  25.847  48.885  1.00  0.00    +0.000 H 
ATOM    119  H15 UNL A   1      31.531  26.949  50.194  1.00  0.00    +0.000 H 
ATOM    120  H16 UNL A   1      33.173  26.760  49.628  1.00  0.00    +0.000 H 
ENDBRANCH   11   12
BRANCH   13   14
ATOM    122  H18 UNL A   1      29.124  27.565  48.556  1.00  0.00    +0.000 H 
ATOM     14  C13 UNL A   1      29.033  27.399  47.503  1.00  0.00    +0.000 C 
BRANCH   14   15
ATOM    123  H19 UNL A   1      28.962  25.457  46.584  1.00  0.00    +0.000 H 
ATOM    124  H20 UNL A   1      27.674  26.527  46.084  1.00  0.00    +0.000 H 
ATOM    125  H21 UNL A   1      27.628  25.781  47.664  1.00  0.00    +0.000 H 
ATOM     15  C14 UNL A   1      28.266  26.200  46.914  1.00  0.00    +0.000 C 
ENDBRANCH   14   15
BRANCH   14   16
ATOM    126  H22 UNL A   1      27.531  28.540  46.454  1.00  0.00    +0.000 H 
ATOM    127  H23 UNL A   1      28.930  29.478  47.198  1.00  0.00    +0.000 H 
ATOM     16  C15 UNL A   1      28.173  28.728  47.289  1.00  0.00    +0.000 C 
BRANCH   16   17
ATOM     17  C16 UNL A   1      27.267  29.305  48.415  1.00  0.00    +0.000 C 
ATOM    129  H25 UNL A   1      27.154  30.337  48.156  1.00  0.00    +0.000 H 
ATOM    128  H24 UNL A   1      26.371  28.719  48.428  1.00  0.00    +0.000 H 
BRANCH   17   18
ATOM     18  C17 UNL A   1      27.806  29.335  49.844  1.00  0.00    +0.000 C 
ATOM    130  H26 UNL A   1      28.377  30.161  50.084  1.00  0.00    +0.000 H 
BRANCH   18   19
ATOM     19  C18 UNL A   1      27.640  28.434  50.846  1.00  0.00    +0.000 C 
BRANCH   19   20
ATOM    133  H29 UNL A   1      27.148  28.512  52.908  1.00  0.00    +0.000 H 
ATOM    131  H27 UNL A   1      25.849  27.957  51.878  1.00  0.00    +0.000 H 
ATOM     20  C19 UNL A   1      26.655  28.656  51.968  1.00  0.00    +0.000 C 
ATOM    132  H28 UNL A   1      26.272  29.653  51.916  1.00  0.00    +0.000 H 
ENDBRANCH   19   20
BRANCH   19   21
ATOM     21  C20 UNL A   1      28.404  27.160  51.060  1.00  0.00    +0.000 C 
ATOM    134  H30 UNL A   1      29.452  27.373  51.081  1.00  0.00    +0.000 H 
ATOM    135  H31 UNL A   1      28.193  26.480  50.262  1.00  0.00    +0.000 H 
ATOM    136  H32 UNL A   1      28.110  26.721  51.991  1.00  0.00    +0.000 H 
ENDBRANCH   19   21
ENDBRANCH   18   19
ENDBRANCH   17   18
ENDBRANCH   16   17
ENDBRANCH   14   16
ENDBRANCH   13   14
BRANCH   24   25
ATOM     25  C24 UNL A   1      34.610  28.488  46.470  1.00  0.00    +0.000 C 
ATOM    141  H37 UNL A   1      35.118  28.402  47.407  1.00  0.00    +0.000 H 
ATOM    142  H38 UNL A   1      34.897  29.401  45.991  1.00  0.00    +0.000 H 
ATOM    143  H39 UNL A   1      34.871  27.660  45.845  1.00  0.00    +0.000 H 
ENDBRANCH   24   25
ENDBRANCH   28   27
ENDBRANCH   29   28
ENDBRANCH   30   29
ENDBRANCH   32   30
ENDBRANCH   33   32
ENDBRANCH   34   33
ENDBRANCH   35   34
ENDBRANCH   36   35
ENDBRANCH   37   36
ENDBRANCH   38   37
ENDBRANCH   39   38
ENDBRANCH   40   39
ENDBRANCH   42   40
ENDBRANCH   46   45
BRANCH   50   51
ATOM     51  C45 UNL A   1      21.255  33.964  46.470  1.00  0.00    +0.000 C 
ATOM     52  C46 UNL A   1      21.854  32.900  47.165  1.00  0.00    +0.000 C 
ATOM     53  F1  UNL A   1      22.313  33.082  48.412  1.00  0.00    +0.000 F 
ATOM     54  C47 UNL A   1      22.043  31.661  46.560  1.00  0.00    +0.000 C 
ATOM     55  F2  UNL A   1      22.684  30.686  47.219  1.00  0.00    +0.000 F 
ATOM     56  C48 UNL A   1      21.594  31.443  45.266  1.00  0.00    +0.000 C 
ATOM     57  F3  UNL A   1      21.774  30.250  44.685  1.00  0.00    +0.000 F 
ATOM     58  C49 UNL A   1      20.967  32.468  44.572  1.00  0.00    +0.000 C 
ATOM     59  F4  UNL A   1      20.524  32.256  43.326  1.00  0.00    +0.000 F 
ATOM     60  C50 UNL A   1      20.812  33.721  45.161  1.00  0.00    +0.000 C 
ATOM     61  F5  UNL A   1      20.234  34.700  44.449  1.00  0.00    +0.000 F 
ENDBRANCH   50   51
BRANCH   67   68
ATOM     68  C56 UNL A   1      16.420  37.769  50.224  1.00  0.00    +0.000 C 
ATOM     69  C57 UNL A   1      16.243  37.655  51.610  1.00  0.00    +0.000 C 
ATOM     70  F6  UNL A   1      17.305  37.662  52.429  1.00  0.00    +0.000 F 
ATOM     71  C58 UNL A   1      14.972  37.508  52.154  1.00  0.00    +0.000 C 
ATOM     72  F7  UNL A   1      14.826  37.361  53.479  1.00  0.00    +0.000 F 
ATOM     73  C59 UNL A   1      13.857  37.508  51.330  1.00  0.00    +0.000 C 
ATOM     74  F8  UNL A   1      12.631  37.383  51.859  1.00  0.00    +0.000 F 
ATOM     75  C60 UNL A   1      14.009  37.633  49.958  1.00  0.00    +0.000 C 
ATOM     76  F9  UNL A   1      12.931  37.654  49.161  1.00  0.00    +0.000 F 
ATOM     77  C61 UNL A   1      15.280  37.747  49.406  1.00  0.00    +0.000 C 
ATOM     78  F10 UNL A   1      15.400  37.867  48.076  1.00  0.00    +0.000 F 
ENDBRANCH   67   68
BRANCH   82   83
ATOM     83  C65 UNL A   1      20.662  43.312  50.148  1.00  0.00    +0.000 C 
ATOM     84  C66 UNL A   1      21.019  43.605  51.472  1.00  0.00    +0.000 C 
ATOM     85  F11 UNL A   1      21.445  42.626  52.283  1.00  0.00    +0.000 F 
ATOM     86  C67 UNL A   1      20.901  44.896  51.983  1.00  0.00    +0.000 C 
ATOM     87  F12 UNL A   1      21.203  45.138  53.265  1.00  0.00    +0.000 F 
ATOM     88  C68 UNL A   1      20.455  45.928  51.170  1.00  0.00    +0.000 C 
ATOM     89  F13 UNL A   1      20.343  47.170  51.660  1.00  0.00    +0.000 F 
ATOM     90  C69 UNL A   1      20.119  45.667  49.850  1.00  0.00    +0.000 C 
ATOM     91  F14 UNL A   1      19.703  46.664  49.057  1.00  0.00    +0.000 F 
ATOM     92  C70 UNL A   1      20.210  44.371  49.347  1.00  0.00    +0.000 C 
ATOM     93  F15 UNL A   1      19.867  44.147  48.070  1.00  0.00    +0.000 F 
ENDBRANCH   82   83
TORSDOF 30
ENDMDL
MODEL 6
REMARK VINA RESULT:      -8.3     43.213     50.266
ROOT
ATOM    166  H62 UNL A   1      24.397  11.791   8.523  1.00  0.00    +0.000 H 
ATOM    167  H63 UNL A   1      24.572  14.254   9.357  1.00  0.00    +0.000 H 
ATOM    168  H64 UNL A   1      20.959  13.811   7.390  1.00  0.00    +0.000 H 
ATOM    169  H65 UNL A   1      15.541  16.464   5.177  1.00  0.00    +0.000 H 
ATOM    170  H66 UNL A   1      15.417  14.075   4.315  1.00  0.00    +0.000 H 
ATOM    171  H67 UNL A   1      18.973  14.478   6.427  1.00  0.00    +0.000 H 
ATOM    172  H68 UNL A   1      19.210  19.186   8.028  1.00  0.00    +0.000 H 
ATOM    173  H69 UNL A   1      21.555  18.612   8.875  1.00  0.00    +0.000 H 
ATOM     46  C41 UNL A   1      17.709  12.492   4.942  1.00  0.00    +0.000 C 
ATOM     47  C42 UNL A   1      18.954  11.821   5.459  1.00  0.00    +0.000 C 
ATOM     48  N3  UNL A   1      19.866  12.276   6.277  1.00  0.00    +0.000 N 
ATOM    175  H71 UNL A   1      18.664   9.865   4.341  1.00  0.00    +0.000 H 
ATOM     49  C43 UNL A   1      20.722  11.207   6.505  1.00  0.00    +0.000 C 
ATOM    174  H70 UNL A   1      20.516   9.090   5.938  1.00  0.00    +0.000 H 
ATOM     50  C44 UNL A   1      21.898  11.200   7.173  1.00  0.00    +0.000 C 
ATOM     62  C51 UNL A   1      22.465  12.376   7.765  1.00  0.00    +0.000 C 
ATOM     63  C52 UNL A   1      23.685  12.526   8.394  1.00  0.00    +0.000 C 
ATOM     64  C53 UNL A   1      23.785  13.852   8.825  1.00  0.00    +0.000 C 
ATOM     65  C54 UNL A   1      22.649  14.540   8.419  1.00  0.00    +0.000 C 
ATOM     66  N4  UNL A   1      21.843  13.617   7.779  1.00  0.00    +0.000 N 
ATOM     67  C55 UNL A   1      22.331  15.932   8.603  1.00  0.00    +0.000 C 
ATOM     79  C62 UNL A   1      21.194  16.550   8.194  1.00  0.00    +0.000 C 
ATOM     80  N5  UNL A   1      20.104  16.027   7.513  1.00  0.00    +0.000 N 
ATOM     81  C63 UNL A   1      19.257  17.019   7.366  1.00  0.00    +0.000 C 
ATOM     82  C64 UNL A   1      17.919  17.034   6.672  1.00  0.00    +0.000 C 
ATOM     94  C71 UNL A   1      17.500  15.905   6.070  1.00  0.00    +0.000 C 
ATOM     95  C72 UNL A   1      16.257  15.734   5.324  1.00  0.00    +0.000 C 
ATOM     96  C73 UNL A   1      16.195  14.474   4.861  1.00  0.00    +0.000 C 
ATOM     97  C74 UNL A   1      17.410  13.763   5.258  1.00  0.00    +0.000 C 
ATOM     98  N6  UNL A   1      18.111  14.679   5.994  1.00  0.00    +0.000 N 
ATOM     99  C75 UNL A   1      19.703  18.281   7.970  1.00  0.00    +0.000 C 
ATOM    100  C76 UNL A   1      20.906  17.952   8.420  1.00  0.00    +0.000 C 
ATOM    101  C77 UNL A   1      20.173  10.058   5.829  1.00  0.00    +0.000 C 
ATOM    102  C78 UNL A   1      19.169  10.419   5.050  1.00  0.00    +0.000 C 
ENDROOT
BRANCH   46   45
ATOM    164  H60 UNL A   1      13.939   9.887   4.322  1.00  0.00    +0.000 H 
ATOM    165  H61 UNL A   1      15.611  10.944   5.745  1.00  0.00    +0.000 H 
ATOM    103  C79 UNL A   1      16.910  11.740   2.741  1.00  0.00    +0.000 C 
ATOM    104  C80 UNL A   1      15.896  11.258   1.943  1.00  0.00    +0.000 C 
ATOM     42  C37 UNL A   1      14.826  10.570   2.527  1.00  0.00    +0.000 C 
ATOM     43  C38 UNL A   1      14.720  10.420   3.908  1.00  0.00    +0.000 C 
ATOM     44  C39 UNL A   1      15.690  11.006   4.717  1.00  0.00    +0.000 C 
ATOM     45  C40 UNL A   1      16.776  11.680   4.135  1.00  0.00    +0.000 C 
ATOM    176  H72 UNL A   1      17.760  12.142   2.317  1.00  0.00    +0.000 H 
ATOM    177  H73 UNL A   1      15.924  11.403   0.921  1.00  0.00    +0.000 H 
BRANCH   42   40
ATOM     41  O3  UNL A   1      12.711   9.810   1.792  1.00  0.00    +0.000 O 
ATOM     40  C36 UNL A   1      13.900   9.856   1.618  1.00  0.00    +0.000 C 
BRANCH   40   39
ATOM    163  H59 UNL A   1      14.654   9.744  -0.298  1.00  0.00    +0.000 H 
ATOM     39  N2  UNL A   1      14.530   9.252   0.546  1.00  0.00    +0.000 N 
BRANCH   39   38
ATOM    161  H57 UNL A   1      14.811   7.528   1.661  1.00  0.00    +0.000 H 
ATOM    162  H58 UNL A   1      14.505   7.251  -0.024  1.00  0.00    +0.000 H 
ATOM     38  C35 UNL A   1      15.005   7.890   0.673  1.00  0.00    +0.000 C 
BRANCH   38   37
ATOM     37  C34 UNL A   1      16.491   7.898   0.412  1.00  0.00    +0.000 C 
ATOM    159  H55 UNL A   1      16.682   7.323  -0.470  1.00  0.00    +0.000 H 
ATOM    160  H56 UNL A   1      16.784   8.922   0.303  1.00  0.00    +0.000 H 
BRANCH   37   36
ATOM     36  C33 UNL A   1      17.345   7.297   1.595  1.00  0.00    +0.000 C 
ATOM    157  H53 UNL A   1      17.050   6.271   1.673  1.00  0.00    +0.000 H 
ATOM    158  H54 UNL A   1      18.334   7.563   1.284  1.00  0.00    +0.000 H 
BRANCH   36   35
ATOM     35  C32 UNL A   1      17.335   7.890   3.153  1.00  0.00    +0.000 C 
ATOM    156  H52 UNL A   1      16.488   8.528   3.007  1.00  0.00    +0.000 H 
ATOM    155  H51 UNL A   1      18.367   8.112   3.331  1.00  0.00    +0.000 H 
BRANCH   35   34
ATOM    153  H49 UNL A   1      15.952   6.616   4.492  1.00  0.00    +0.000 H 
ATOM     34  C31 UNL A   1      16.771   7.241   4.780  1.00  0.00    +0.000 C 
ATOM    154  H50 UNL A   1      17.771   7.093   5.129  1.00  0.00    +0.000 H 
BRANCH   34   33
ATOM     33  C30 UNL A   1      16.114   7.966   6.642  1.00  0.00    +0.000 C 
ATOM    151  H47 UNL A   1      16.615   7.311   7.324  1.00  0.00    +0.000 H 
ATOM    152  H48 UNL A   1      16.228   8.991   6.357  1.00  0.00    +0.000 H 
BRANCH   33   32
ATOM    150  H46 UNL A   1      14.289   8.969   6.973  1.00  0.00    +0.000 H 
ATOM     32  N1  UNL A   1      14.794   8.214   7.354  1.00  0.00    +0.000 N 
BRANCH   32   30
ATOM     30  C29 UNL A   1      14.155   7.628   8.398  1.00  0.00    +0.000 C 
ATOM     31  O2  UNL A   1      13.091   7.064   8.106  1.00  0.00    +0.000 O 
BRANCH   30   29
ATOM    149  H45 UNL A   1      13.852   7.023  10.287  1.00  0.00    +0.000 H 
ATOM    148  H44 UNL A   1      14.852   8.595  10.098  1.00  0.00    +0.000 H 
ATOM     29  C28 UNL A   1      14.646   7.579   9.834  1.00  0.00    +0.000 C 
BRANCH   29   28
ATOM    146  H42 UNL A   1      16.436   6.508   9.474  1.00  0.00    +0.000 H 
ATOM    147  H43 UNL A   1      16.345   7.426  11.028  1.00  0.00    +0.000 H 
ATOM     28  C27 UNL A   1      15.856   6.778  10.331  1.00  0.00    +0.000 C 
BRANCH   28   27
ATOM      3  C3  UNL A   1      15.954   5.574  12.641  1.00  0.00    +0.000 C 
ATOM      4  C4  UNL A   1      17.073   4.598  13.078  1.00  0.00    +0.000 C 
ATOM      6  C5  UNL A   1      17.077   3.270  12.318  1.00  0.00    +0.000 C 
ATOM      7  C6  UNL A   1      17.304   3.555  10.799  1.00  0.00    +0.000 C 
ATOM      8  C7  UNL A   1      15.660   4.226  10.177  1.00  0.00    +0.000 C 
ATOM      9  C8  UNL A   1      15.128   4.128   8.316  1.00  0.00    +0.000 C 
ATOM     10  C9  UNL A   1      16.320   3.275   7.040  1.00  0.00    +0.000 C 
ATOM     11  C10 UNL A   1      18.078   2.603   7.612  1.00  0.00    +0.000 C 
ATOM    139  H35 UNL A   1      20.255   3.138  10.418  1.00  0.00    +0.000 H 
ATOM    140  H36 UNL A   1      20.305   1.572   9.565  1.00  0.00    +0.000 H 
ATOM     13  C12 UNL A   1      19.448   3.533   7.190  1.00  0.00    +0.000 C 
ATOM    137  H33 UNL A   1      20.948   4.183   8.600  1.00  0.00    +0.000 H 
ATOM    144  H40 UNL A   1      14.087   4.000  11.744  1.00  0.00    +0.000 H 
ATOM    145  H41 UNL A   1      13.397   4.765  10.620  1.00  0.00    +0.000 H 
ATOM    138  H34 UNL A   1      21.223   2.570   7.893  1.00  0.00    +0.000 H 
ATOM     22  C21 UNL A   1      20.510   3.251   8.310  1.00  0.00    +0.000 C 
ATOM     23  C22 UNL A   1      19.938   2.578   9.563  1.00  0.00    +0.000 C 
ATOM     24  C23 UNL A   1      18.396   2.486   9.590  1.00  0.00    +0.000 C 
ATOM     26  C25 UNL A   1      14.410   4.606  10.923  1.00  0.00    +0.000 C 
ATOM     27  C26 UNL A   1      15.581   5.520  11.105  1.00  0.00    +0.000 C 
ATOM    108  H4  UNL A   1      15.064   5.198  13.100  1.00  0.00    +0.000 H 
ATOM    109  H5  UNL A   1      17.981   5.121  12.853  1.00  0.00    +0.000 H 
ATOM    111  H7  UNL A   1      16.138   2.776  12.455  1.00  0.00    +0.000 H 
ATOM    112  H8  UNL A   1      17.860   2.642  12.690  1.00  0.00    +0.000 H 
ATOM    113  H9  UNL A   1      18.132   4.232  10.759  1.00  0.00    +0.000 H 
ATOM    114  H10 UNL A   1      14.976   5.132   7.981  1.00  0.00    +0.000 H 
ATOM    115  H11 UNL A   1      14.269   3.492   8.328  1.00  0.00    +0.000 H 
ATOM    116  H12 UNL A   1      16.502   3.990   6.265  1.00  0.00    +0.000 H 
ATOM    117  H13 UNL A   1      15.793   2.381   6.778  1.00  0.00    +0.000 H 
ATOM    121  H17 UNL A   1      19.588   3.235   6.172  1.00  0.00    +0.000 H 
BRANCH    3    2
ATOM      2  C2  UNL A   1      16.122   6.977  13.224  1.00  0.00    +0.000 C 
ATOM    107  H3  UNL A   1      15.268   7.555  13.268  1.00  0.00    +0.000 H 
BRANCH    2    1
ATOM      1  C1  UNL A   1      17.246   7.548  13.687  1.00  0.00    +0.000 C 
ATOM    106  H2  UNL A   1      18.129   7.445  13.166  1.00  0.00    +0.000 H 
ATOM    105  H1  UNL A   1      17.225   8.091  14.565  1.00  0.00    +0.000 H 
ENDBRANCH    2    1
ENDBRANCH    3    2
BRANCH    4    5
ATOM      5  O1  UNL A   1      16.972   4.285  14.473  1.00  0.00    +0.000 O 
ATOM    110  H6  UNL A   1      17.740   3.756  14.743  1.00  0.00    +0.000 H 
ENDBRANCH    4    5
BRANCH   11   12
ATOM     12  C11 UNL A   1      18.300   1.499   6.490  1.00  0.00    +0.000 C 
ATOM    118  H14 UNL A   1      17.382   1.331   5.967  1.00  0.00    +0.000 H 
ATOM    119  H15 UNL A   1      18.624   0.588   6.944  1.00  0.00    +0.000 H 
ATOM    120  H16 UNL A   1      19.045   1.838   5.800  1.00  0.00    +0.000 H 
ENDBRANCH   11   12
BRANCH   13   14
ATOM    122  H18 UNL A   1      18.535   5.141   6.598  1.00  0.00    +0.000 H 
ATOM     14  C13 UNL A   1      19.552   4.937   6.338  1.00  0.00    +0.000 C 
BRANCH   14   15
ATOM    123  H19 UNL A   1      19.458   5.327   4.226  1.00  0.00    +0.000 H 
ATOM    124  H20 UNL A   1      19.822   3.665   4.626  1.00  0.00    +0.000 H 
ATOM    125  H21 UNL A   1      21.052   4.895   4.799  1.00  0.00    +0.000 H 
ATOM     15  C14 UNL A   1      20.006   4.687   4.887  1.00  0.00    +0.000 C 
ENDBRANCH   14   15
BRANCH   14   16
ATOM    126  H22 UNL A   1      19.924   7.027   5.950  1.00  0.00    +0.000 H 
ATOM    127  H23 UNL A   1      21.030   6.188   7.161  1.00  0.00    +0.000 H 
ATOM     16  C15 UNL A   1      20.043   6.385   6.798  1.00  0.00    +0.000 C 
BRANCH   16   17
ATOM     17  C16 UNL A   1      19.389   7.125   8.000  1.00  0.00    +0.000 C 
ATOM    129  H25 UNL A   1      20.087   7.900   8.241  1.00  0.00    +0.000 H 
ATOM    128  H24 UNL A   1      18.418   7.445   7.683  1.00  0.00    +0.000 H 
BRANCH   17   18
ATOM     18  C17 UNL A   1      19.205   6.368   9.315  1.00  0.00    +0.000 C 
ATOM    130  H26 UNL A   1      18.670   5.488   9.247  1.00  0.00    +0.000 H 
BRANCH   18   19
ATOM     19  C18 UNL A   1      19.646   6.685  10.559  1.00  0.00    +0.000 C 
BRANCH   19   20
ATOM    133  H29 UNL A   1      19.675   5.617  12.392  1.00  0.00    +0.000 H 
ATOM    131  H27 UNL A   1      21.256   5.919  11.708  1.00  0.00    +0.000 H 
ATOM     20  C19 UNL A   1      20.243   5.653  11.485  1.00  0.00    +0.000 C 
ATOM    132  H28 UNL A   1      20.222   4.694  11.012  1.00  0.00    +0.000 H 
ENDBRANCH   19   20
BRANCH   19   21
ATOM     21  C20 UNL A   1      19.563   8.019  11.241  1.00  0.00    +0.000 C 
ATOM    134  H30 UNL A   1      20.542   8.325  11.545  1.00  0.00    +0.000 H 
ATOM    135  H31 UNL A   1      18.931   7.941  12.100  1.00  0.00    +0.000 H 
ATOM    136  H32 UNL A   1      19.158   8.741  10.563  1.00  0.00    +0.000 H 
ENDBRANCH   19   21
ENDBRANCH   18   19
ENDBRANCH   17   18
ENDBRANCH   16   17
ENDBRANCH   14   16
ENDBRANCH   13   14
BRANCH   24   25
ATOM     25  C24 UNL A   1      18.238   1.305  10.632  1.00  0.00    +0.000 C 
ATOM    141  H37 UNL A   1      18.037   1.710  11.601  1.00  0.00    +0.000 H 
ATOM    142  H38 UNL A   1      19.143   0.734  10.664  1.00  0.00    +0.000 H 
ATOM    143  H39 UNL A   1      17.427   0.673  10.334  1.00  0.00    +0.000 H 
ENDBRANCH   24   25
ENDBRANCH   28   27
ENDBRANCH   29   28
ENDBRANCH   30   29
ENDBRANCH   32   30
ENDBRANCH   33   32
ENDBRANCH   34   33
ENDBRANCH   35   34
ENDBRANCH   36   35
ENDBRANCH   37   36
ENDBRANCH   38   37
ENDBRANCH   39   38
ENDBRANCH   40   39
ENDBRANCH   42   40
ENDBRANCH   46   45
BRANCH   50   51
ATOM     51  C45 UNL A   1      22.639   9.897   7.261  1.00  0.00    +0.000 C 
ATOM     52  C46 UNL A   1      23.547   9.491   6.270  1.00  0.00    +0.000 C 
ATOM     53  F1  UNL A   1      23.770  10.269   5.199  1.00  0.00    +0.000 F 
ATOM     54  C47 UNL A   1      24.183   8.255   6.338  1.00  0.00    +0.000 C 
ATOM     55  F2  UNL A   1      24.987   7.861   5.341  1.00  0.00    +0.000 F 
ATOM     56  C48 UNL A   1      23.963   7.420   7.423  1.00  0.00    +0.000 C 
ATOM     57  F3  UNL A   1      24.577   6.231   7.490  1.00  0.00    +0.000 F 
ATOM     58  C49 UNL A   1      23.098   7.814   8.433  1.00  0.00    +0.000 C 
ATOM     59  F4  UNL A   1      22.893   7.012   9.487  1.00  0.00    +0.000 F 
ATOM     60  C50 UNL A   1      22.431   9.034   8.348  1.00  0.00    +0.000 C 
ATOM     61  F5  UNL A   1      21.574   9.368   9.324  1.00  0.00    +0.000 F 
ENDBRANCH   50   51
BRANCH   67   68
ATOM     68  C56 UNL A   1      23.359  16.775   9.294  1.00  0.00    +0.000 C 
ATOM     69  C57 UNL A   1      24.394  17.399   8.583  1.00  0.00    +0.000 C 
ATOM     70  F6  UNL A   1      24.535  17.183   7.268  1.00  0.00    +0.000 F 
ATOM     71  C58 UNL A   1      25.302  18.228   9.233  1.00  0.00    +0.000 C 
ATOM     72  F7  UNL A   1      26.309  18.785   8.544  1.00  0.00    +0.000 F 
ATOM     73  C59 UNL A   1      25.172  18.475  10.592  1.00  0.00    +0.000 C 
ATOM     74  F8  UNL A   1      26.040  19.288  11.211  1.00  0.00    +0.000 F 
ATOM     75  C60 UNL A   1      24.148  17.879  11.310  1.00  0.00    +0.000 C 
ATOM     76  F9  UNL A   1      24.008  18.133  12.618  1.00  0.00    +0.000 F 
ATOM     77  C61 UNL A   1      23.257  17.023  10.672  1.00  0.00    +0.000 C 
ATOM     78  F10 UNL A   1      22.275  16.458  11.390  1.00  0.00    +0.000 F 
ENDBRANCH   67   68
BRANCH   82   83
ATOM     83  C65 UNL A   1      17.098  18.271   6.595  1.00  0.00    +0.000 C 
ATOM     84  C66 UNL A   1      17.251  19.171   5.530  1.00  0.00    +0.000 C 
ATOM     85  F11 UNL A   1      18.158  18.928   4.573  1.00  0.00    +0.000 F 
ATOM     86  C67 UNL A   1      16.503  20.345   5.465  1.00  0.00    +0.000 C 
ATOM     87  F12 UNL A   1      16.704  21.210   4.462  1.00  0.00    +0.000 F 
ATOM     88  C68 UNL A   1      15.563  20.627   6.444  1.00  0.00    +0.000 C 
ATOM     89  F13 UNL A   1      14.842  21.755   6.380  1.00  0.00    +0.000 F 
ATOM     90  C69 UNL A   1      15.377  19.741   7.495  1.00  0.00    +0.000 C 
ATOM     91  F14 UNL A   1      14.459  20.002   8.435  1.00  0.00    +0.000 F 
ATOM     92  C70 UNL A   1      16.145  18.580   7.576  1.00  0.00    +0.000 C 
ATOM     93  F15 UNL A   1      15.952  17.748   8.610  1.00  0.00    +0.000 F 
ENDBRANCH   82   83
TORSDOF 30
ENDMDL
MODEL 7
REMARK VINA RESULT:      -8.3     17.962     25.866
ROOT
ATOM    166  H62 UNL A   1      38.847  25.671  29.089  1.00  0.00    +0.000 H 
ATOM    167  H63 UNL A   1      37.938  27.909  30.070  1.00  0.00    +0.000 H 
ATOM    168  H64 UNL A   1      41.841  28.528  28.844  1.00  0.00    +0.000 H 
ATOM    169  H65 UNL A   1      46.914  32.448  28.414  1.00  0.00    +0.000 H 
ATOM    170  H66 UNL A   1      47.804  30.240  27.521  1.00  0.00    +0.000 H 
ATOM    171  H67 UNL A   1      43.835  29.662  28.605  1.00  0.00    +0.000 H 
ATOM    172  H68 UNL A   1      42.158  33.985  30.419  1.00  0.00    +0.000 H 
ATOM    173  H69 UNL A   1      40.004  32.727  30.989  1.00  0.00    +0.000 H 
ATOM     46  C41 UNL A   1      45.920  28.098  27.628  1.00  0.00    +0.000 C 
ATOM     47  C42 UNL A   1      44.751  27.149  27.688  1.00  0.00    +0.000 C 
ATOM     48  N3  UNL A   1      43.505  27.384  27.999  1.00  0.00    +0.000 N 
ATOM    175  H71 UNL A   1      45.911  25.291  27.087  1.00  0.00    +0.000 H 
ATOM     49  C43 UNL A   1      42.839  26.185  27.779  1.00  0.00    +0.000 C 
ATOM    174  H70 UNL A   1      43.546  24.337  26.814  1.00  0.00    +0.000 H 
ATOM     50  C44 UNL A   1      41.559  25.867  28.077  1.00  0.00    +0.000 C 
ATOM     62  C51 UNL A   1      40.658  26.781  28.718  1.00  0.00    +0.000 C 
ATOM     63  C52 UNL A   1      39.366  26.560  29.153  1.00  0.00    +0.000 C 
ATOM     64  C53 UNL A   1      38.887  27.757  29.694  1.00  0.00    +0.000 C 
ATOM     65  C54 UNL A   1      39.898  28.706  29.644  1.00  0.00    +0.000 C 
ATOM     66  N4  UNL A   1      40.976  28.095  29.031  1.00  0.00    +0.000 N 
ATOM     67  C55 UNL A   1      39.876  30.065  30.120  1.00  0.00    +0.000 C 
ATOM     79  C62 UNL A   1      40.895  30.957  30.031  1.00  0.00    +0.000 C 
ATOM     80  N5  UNL A   1      42.165  30.792  29.497  1.00  0.00    +0.000 N 
ATOM     81  C63 UNL A   1      42.770  31.949  29.633  1.00  0.00    +0.000 C 
ATOM     82  C64 UNL A   1      44.177  32.338  29.258  1.00  0.00    +0.000 C 
ATOM     94  C71 UNL A   1      44.982  31.394  28.737  1.00  0.00    +0.000 C 
ATOM     95  C72 UNL A   1      46.378  31.569  28.345  1.00  0.00    +0.000 C 
ATOM     96  C73 UNL A   1      46.851  30.400  27.881  1.00  0.00    +0.000 C 
ATOM     97  C74 UNL A   1      45.795  29.391  27.972  1.00  0.00    +0.000 C 
ATOM     98  N6  UNL A   1      44.717  30.076  28.462  1.00  0.00    +0.000 N 
ATOM     99  C75 UNL A   1      41.936  32.992  30.242  1.00  0.00    +0.000 C 
ATOM    100  C76 UNL A   1      40.821  32.324  30.506  1.00  0.00    +0.000 C 
ATOM    101  C77 UNL A   1      43.787  25.258  27.213  1.00  0.00    +0.000 C 
ATOM    102  C78 UNL A   1      45.010  25.756  27.277  1.00  0.00    +0.000 C 
ENDROOT
BRANCH   46   45
ATOM    164  H60 UNL A   1      49.192  27.635  24.394  1.00  0.00    +0.000 H 
ATOM    165  H61 UNL A   1      46.941  28.244  25.103  1.00  0.00    +0.000 H 
ATOM    103  C79 UNL A   1      48.077  26.981  28.012  1.00  0.00    +0.000 C 
ATOM    104  C80 UNL A   1      49.386  26.762  27.646  1.00  0.00    +0.000 C 
ATOM     42  C37 UNL A   1      49.779  26.987  26.321  1.00  0.00    +0.000 C 
ATOM     43  C38 UNL A   1      48.895  27.499  25.374  1.00  0.00    +0.000 C 
ATOM     44  C39 UNL A   1      47.602  27.825  25.776  1.00  0.00    +0.000 C 
ATOM     45  C40 UNL A   1      47.198  27.582  27.100  1.00  0.00    +0.000 C 
ATOM    176  H72 UNL A   1      47.745  26.707  28.950  1.00  0.00    +0.000 H 
ATOM    177  H73 UNL A   1      50.074  26.433  28.343  1.00  0.00    +0.000 H 
BRANCH   42   40
ATOM     41  O3  UNL A   1      51.286  25.645  25.090  1.00  0.00    +0.000 O 
ATOM     40  C36 UNL A   1      51.118  26.501  25.917  1.00  0.00    +0.000 C 
BRANCH   40   39
ATOM    163  H59 UNL A   1      52.663  26.648  27.274  1.00  0.00    +0.000 H 
ATOM     39  N2  UNL A   1      52.159  27.127  26.578  1.00  0.00    +0.000 N 
BRANCH   39   38
ATOM    161  H57 UNL A   1      53.375  28.506  25.622  1.00  0.00    +0.000 H 
ATOM    162  H58 UNL A   1      51.702  28.957  25.698  1.00  0.00    +0.000 H 
ATOM     38  C35 UNL A   1      52.500  28.492  26.238  1.00  0.00    +0.000 C 
BRANCH   38   37
ATOM     37  C34 UNL A   1      52.768  29.231  27.526  1.00  0.00    +0.000 C 
ATOM    159  H55 UNL A   1      53.416  28.631  28.131  1.00  0.00    +0.000 H 
ATOM    160  H56 UNL A   1      53.210  30.169  27.262  1.00  0.00    +0.000 H 
BRANCH   37   36
ATOM     36  C33 UNL A   1      51.465  29.551  28.356  1.00  0.00    +0.000 C 
ATOM    157  H53 UNL A   1      51.439  30.615  28.457  1.00  0.00    +0.000 H 
ATOM    158  H54 UNL A   1      50.727  29.034  27.779  1.00  0.00    +0.000 H 
BRANCH   36   35
ATOM     35  C32 UNL A   1      51.153  28.946  29.879  1.00  0.00    +0.000 C 
ATOM    156  H52 UNL A   1      50.143  28.665  29.665  1.00  0.00    +0.000 H 
ATOM    155  H51 UNL A   1      51.558  29.699  30.523  1.00  0.00    +0.000 H 
BRANCH   35   34
ATOM    153  H49 UNL A   1      52.632  27.339  30.626  1.00  0.00    +0.000 H 
ATOM     34  C31 UNL A   1      51.572  27.387  30.762  1.00  0.00    +0.000 C 
ATOM    154  H50 UNL A   1      50.904  27.601  31.570  1.00  0.00    +0.000 H 
BRANCH   34   33
ATOM     33  C30 UNL A   1      51.049  25.350  30.731  1.00  0.00    +0.000 C 
ATOM    151  H47 UNL A   1      50.195  25.350  30.086  1.00  0.00    +0.000 H 
ATOM    152  H48 UNL A   1      52.064  25.023  30.640  1.00  0.00    +0.000 H 
BRANCH   33   32
ATOM    150  H46 UNL A   1      50.554  23.384  31.308  1.00  0.00    +0.000 H 
ATOM     32  N1  UNL A   1      50.690  24.262  31.730  1.00  0.00    +0.000 N 
BRANCH   32   30
ATOM     30  C29 UNL A   1      50.514  24.231  33.076  1.00  0.00    +0.000 C 
ATOM     31  O2  UNL A   1      51.508  24.560  33.737  1.00  0.00    +0.000 O 
BRANCH   30   29
ATOM    149  H45 UNL A   1      49.199  22.819  33.626  1.00  0.00    +0.000 H 
ATOM    148  H44 UNL A   1      48.488  24.537  33.408  1.00  0.00    +0.000 H 
ATOM     29  C28 UNL A   1      49.229  23.874  33.801  1.00  0.00    +0.000 C 
BRANCH   29   28
ATOM    146  H42 UNL A   1      49.919  23.504  35.767  1.00  0.00    +0.000 H 
ATOM    147  H43 UNL A   1      48.824  24.925  35.553  1.00  0.00    +0.000 H 
ATOM     28  C27 UNL A   1      49.032  23.901  35.322  1.00  0.00    +0.000 C 
BRANCH   28   27
ATOM      3  C3  UNL A   1      47.956  21.564  35.745  1.00  0.00    +0.000 C 
ATOM      4  C4  UNL A   1      46.870  20.920  34.850  1.00  0.00    +0.000 C 
ATOM      6  C5  UNL A   1      45.513  21.622  34.908  1.00  0.00    +0.000 C 
ATOM      7  C6  UNL A   1      45.681  23.095  34.413  1.00  0.00    +0.000 C 
ATOM      8  C7  UNL A   1      46.521  23.995  35.836  1.00  0.00    +0.000 C 
ATOM      9  C8  UNL A   1      46.388  25.913  36.082  1.00  0.00    +0.000 C 
ATOM     10  C9  UNL A   1      45.320  26.951  34.834  1.00  0.00    +0.000 C 
ATOM     11  C10 UNL A   1      44.461  26.081  33.293  1.00  0.00    +0.000 C 
ATOM    139  H35 UNL A   1      44.869  22.982  31.523  1.00  0.00    +0.000 H 
ATOM    140  H36 UNL A   1      43.264  23.762  31.554  1.00  0.00    +0.000 H 
ATOM     13  C12 UNL A   1      45.183  26.310  31.761  1.00  0.00    +0.000 C 
ATOM    137  H33 UNL A   1      45.714  24.701  30.422  1.00  0.00    +0.000 H 
ATOM    144  H40 UNL A   1      46.586  22.694  37.647  1.00  0.00    +0.000 H 
ATOM    145  H41 UNL A   1      47.370  23.940  38.045  1.00  0.00    +0.000 H 
ATOM    138  H34 UNL A   1      44.042  25.298  30.262  1.00  0.00    +0.000 H 
ATOM     22  C21 UNL A   1      44.830  25.025  30.932  1.00  0.00    +0.000 C 
ATOM     23  C22 UNL A   1      44.307  23.857  31.776  1.00  0.00    +0.000 C 
ATOM     24  C23 UNL A   1      44.415  24.075  33.303  1.00  0.00    +0.000 C 
ATOM     26  C25 UNL A   1      47.099  23.473  37.122  1.00  0.00    +0.000 C 
ATOM     27  C26 UNL A   1      47.865  23.138  35.881  1.00  0.00    +0.000 C 
ATOM    108  H4  UNL A   1      47.724  21.242  36.739  1.00  0.00    +0.000 H 
ATOM    109  H5  UNL A   1      47.259  21.014  33.856  1.00  0.00    +0.000 H 
ATOM    111  H7  UNL A   1      45.151  21.621  35.915  1.00  0.00    +0.000 H 
ATOM    112  H8  UNL A   1      44.811  21.108  34.284  1.00  0.00    +0.000 H 
ATOM    113  H9  UNL A   1      46.243  23.025  33.505  1.00  0.00    +0.000 H 
ATOM    114  H10 UNL A   1      47.383  26.303  36.043  1.00  0.00    +0.000 H 
ATOM    115  H11 UNL A   1      45.869  26.017  37.011  1.00  0.00    +0.000 H 
ATOM    116  H12 UNL A   1      45.962  27.711  34.439  1.00  0.00    +0.000 H 
ATOM    117  H13 UNL A   1      44.488  27.263  35.430  1.00  0.00    +0.000 H 
ATOM    121  H17 UNL A   1      44.814  27.281  31.507  1.00  0.00    +0.000 H 
BRANCH    3    2
ATOM      2  C2  UNL A   1      49.356  21.011  35.481  1.00  0.00    +0.000 C 
ATOM    107  H3  UNL A   1      49.853  21.404  34.666  1.00  0.00    +0.000 H 
BRANCH    2    1
ATOM      1  C1  UNL A   1      50.019  20.078  36.183  1.00  0.00    +0.000 C 
ATOM    106  H2  UNL A   1      49.922  20.037  37.208  1.00  0.00    +0.000 H 
ATOM    105  H1  UNL A   1      50.625  19.399  35.695  1.00  0.00    +0.000 H 
ENDBRANCH    2    1
ENDBRANCH    3    2
BRANCH    4    5
ATOM      5  O1  UNL A   1      46.651  19.549  35.206  1.00  0.00    +0.000 O 
ATOM    110  H6  UNL A   1      46.916  18.976  34.469  1.00  0.00    +0.000 H 
ENDBRANCH    4    5
BRANCH   11   12
ATOM     12  C11 UNL A   1      43.277  27.114  33.051  1.00  0.00    +0.000 C 
ATOM    118  H14 UNL A   1      42.820  27.358  33.987  1.00  0.00    +0.000 H 
ATOM    119  H15 UNL A   1      42.549  26.678  32.402  1.00  0.00    +0.000 H 
ATOM    120  H16 UNL A   1      43.668  28.004  32.603  1.00  0.00    +0.000 H 
ENDBRANCH   11   12
BRANCH   13   14
ATOM    122  H18 UNL A   1      46.191  27.131  30.318  1.00  0.00    +0.000 H 
ATOM     14  C13 UNL A   1      46.512  27.182  31.337  1.00  0.00    +0.000 C 
BRANCH   14   15
ATOM    123  H19 UNL A   1      48.652  26.970  31.354  1.00  0.00    +0.000 H 
ATOM    124  H20 UNL A   1      47.787  25.472  31.601  1.00  0.00    +0.000 H 
ATOM    125  H21 UNL A   1      47.893  26.642  32.894  1.00  0.00    +0.000 H 
ATOM     15  C14 UNL A   1      47.810  26.516  31.835  1.00  0.00    +0.000 C 
ENDBRANCH   14   15
BRANCH   14   16
ATOM    126  H22 UNL A   1      46.248  29.096  30.375  1.00  0.00    +0.000 H 
ATOM    127  H23 UNL A   1      47.791  28.853  31.351  1.00  0.00    +0.000 H 
ATOM     16  C15 UNL A   1      46.728  28.763  31.272  1.00  0.00    +0.000 C 
BRANCH   16   17
ATOM     17  C16 UNL A   1      46.230  29.703  32.407  1.00  0.00    +0.000 C 
ATOM    129  H25 UNL A   1      46.190  29.072  33.270  1.00  0.00    +0.000 H 
ATOM    128  H24 UNL A   1      46.912  30.527  32.455  1.00  0.00    +0.000 H 
BRANCH   17   18
ATOM     18  C17 UNL A   1      44.822  30.289  32.309  1.00  0.00    +0.000 C 
ATOM    130  H26 UNL A   1      44.419  30.313  31.359  1.00  0.00    +0.000 H 
BRANCH   18   19
ATOM     19  C18 UNL A   1      44.025  30.782  33.291  1.00  0.00    +0.000 C 
BRANCH   19   20
ATOM    133  H29 UNL A   1      44.230  32.460  34.572  1.00  0.00    +0.000 H 
ATOM    131  H27 UNL A   1      45.657  31.457  34.465  1.00  0.00    +0.000 H 
ATOM     20  C19 UNL A   1      44.588  31.453  34.520  1.00  0.00    +0.000 C 
ATOM    132  H28 UNL A   1      44.278  30.918  35.393  1.00  0.00    +0.000 H 
ENDBRANCH   19   20
BRANCH   19   21
ATOM     21  C20 UNL A   1      42.529  30.696  33.378  1.00  0.00    +0.000 C 
ATOM    134  H30 UNL A   1      42.095  31.562  32.926  1.00  0.00    +0.000 H 
ATOM    135  H31 UNL A   1      42.234  30.643  34.404  1.00  0.00    +0.000 H 
ATOM    136  H32 UNL A   1      42.192  29.819  32.864  1.00  0.00    +0.000 H 
ENDBRANCH   19   21
ENDBRANCH   18   19
ENDBRANCH   17   18
ENDBRANCH   16   17
ENDBRANCH   14   16
ENDBRANCH   13   14
BRANCH   24   25
ATOM     25  C24 UNL A   1      43.324  23.032  33.778  1.00  0.00    +0.000 C 
ATOM    141  H37 UNL A   1      43.407  22.139  33.195  1.00  0.00    +0.000 H 
ATOM    142  H38 UNL A   1      42.348  23.452  33.650  1.00  0.00    +0.000 H 
ATOM    143  H39 UNL A   1      43.480  22.798  34.811  1.00  0.00    +0.000 H 
ENDBRANCH   24   25
ENDBRANCH   28   27
ENDBRANCH   29   28
ENDBRANCH   30   29
ENDBRANCH   32   30
ENDBRANCH   33   32
ENDBRANCH   34   33
ENDBRANCH   35   34
ENDBRANCH   36   35
ENDBRANCH   37   36
ENDBRANCH   38   37
ENDBRANCH   39   38
ENDBRANCH   40   39
ENDBRANCH   42   40
ENDBRANCH   46   45
BRANCH   50   51
ATOM     51  C45 UNL A   1      41.090  24.481  27.740  1.00  0.00    +0.000 C 
ATOM     52  C46 UNL A   1      41.638  23.343  28.354  1.00  0.00    +0.000 C 
ATOM     53  F1  UNL A   1      42.615  23.471  29.265  1.00  0.00    +0.000 F 
ATOM     54  C47 UNL A   1      41.232  22.063  27.988  1.00  0.00    +0.000 C 
ATOM     55  F2  UNL A   1      41.825  20.992  28.536  1.00  0.00    +0.000 F 
ATOM     56  C48 UNL A   1      40.236  21.893  27.039  1.00  0.00    +0.000 C 
ATOM     57  F3  UNL A   1      39.844  20.661  26.689  1.00  0.00    +0.000 F 
ATOM     58  C49 UNL A   1      39.654  23.004  26.445  1.00  0.00    +0.000 C 
ATOM     59  F4  UNL A   1      38.684  22.842  25.535  1.00  0.00    +0.000 F 
ATOM     60  C50 UNL A   1      40.085  24.285  26.780  1.00  0.00    +0.000 C 
ATOM     61  F5  UNL A   1      39.527  25.335  26.160  1.00  0.00    +0.000 F 
ENDBRANCH   50   51
BRANCH   67   68
ATOM     68  C56 UNL A   1      38.617  30.526  30.790  1.00  0.00    +0.000 C 
ATOM     69  C57 UNL A   1      38.473  30.490  32.184  1.00  0.00    +0.000 C 
ATOM     70  F6  UNL A   1      39.436  29.957  32.949  1.00  0.00    +0.000 F 
ATOM     71  C58 UNL A   1      37.322  30.980  32.791  1.00  0.00    +0.000 C 
ATOM     72  F7  UNL A   1      37.185  30.901  34.123  1.00  0.00    +0.000 F 
ATOM     73  C59 UNL A   1      36.315  31.545  32.023  1.00  0.00    +0.000 C 
ATOM     74  F8  UNL A   1      35.214  32.032  32.613  1.00  0.00    +0.000 F 
ATOM     75  C60 UNL A   1      36.444  31.603  30.644  1.00  0.00    +0.000 C 
ATOM     76  F9  UNL A   1      35.482  32.168  29.902  1.00  0.00    +0.000 F 
ATOM     77  C61 UNL A   1      37.578  31.085  30.029  1.00  0.00    +0.000 C 
ATOM     78  F10 UNL A   1      37.679  31.153  28.694  1.00  0.00    +0.000 F 
ENDBRANCH   67   68
BRANCH   82   83
ATOM     83  C65 UNL A   1      44.695  33.709  29.505  1.00  0.00    +0.000 C 
ATOM     84  C66 UNL A   1      44.545  34.719  28.544  1.00  0.00    +0.000 C 
ATOM     85  F11 UNL A   1      43.941  34.449  27.378  1.00  0.00    +0.000 F 
ATOM     86  C67 UNL A   1      45.050  36.001  28.759  1.00  0.00    +0.000 C 
ATOM     87  F12 UNL A   1      44.934  36.933  27.803  1.00  0.00    +0.000 F 
ATOM     88  C68 UNL A   1      45.687  36.307  29.952  1.00  0.00    +0.000 C 
ATOM     89  F13 UNL A   1      46.171  37.539  30.159  1.00  0.00    +0.000 F 
ATOM     90  C69 UNL A   1      45.827  35.331  30.927  1.00  0.00    +0.000 C 
ATOM     91  F14 UNL A   1      46.427  35.627  32.087  1.00  0.00    +0.000 F 
ATOM     92  C70 UNL A   1      45.347  34.042  30.702  1.00  0.00    +0.000 C 
ATOM     93  F15 UNL A   1      45.507  33.115  31.658  1.00  0.00    +0.000 F 
ENDBRANCH   82   83
TORSDOF 30
ENDMDL
MODEL 8
REMARK VINA RESULT:      -8.3     35.340     38.753
ROOT
ATOM    166  H62 UNL A   1      18.697  53.137  -1.610  1.00  0.00    +0.000 H 
ATOM    167  H63 UNL A   1      18.171  50.610  -1.973  1.00  0.00    +0.000 H 
ATOM    168  H64 UNL A   1      16.005  51.923   1.298  1.00  0.00    +0.000 H 
ATOM    169  H65 UNL A   1      12.026  50.574   6.160  1.00  0.00    +0.000 H 
ATOM    170  H66 UNL A   1      12.601  53.022   6.537  1.00  0.00    +0.000 H 
ATOM    171  H67 UNL A   1      14.653  51.743   3.158  1.00  0.00    +0.000 H 
ATOM    172  H68 UNL A   1      13.559  46.930   2.503  1.00  0.00    +0.000 H 
ATOM    173  H69 UNL A   1      15.269  46.965   0.599  1.00  0.00    +0.000 H 
ATOM     46  C41 UNL A   1      14.483  54.075   4.668  1.00  0.00    +0.000 C 
ATOM     47  C42 UNL A   1      15.401  54.444   3.532  1.00  0.00    +0.000 C 
ATOM     48  N3  UNL A   1      15.756  53.744   2.488  1.00  0.00    +0.000 N 
ATOM    175  H71 UNL A   1      15.904  56.527   4.286  1.00  0.00    +0.000 H 
ATOM     49  C43 UNL A   1      16.517  54.604   1.708  1.00  0.00    +0.000 C 
ATOM    174  H70 UNL A   1      16.849  56.771   1.914  1.00  0.00    +0.000 H 
ATOM     50  C44 UNL A   1      17.226  54.322   0.592  1.00  0.00    +0.000 C 
ATOM     62  C51 UNL A   1      17.305  53.004   0.031  1.00  0.00    +0.000 C 
ATOM     63  C52 UNL A   1      18.053  52.565  -1.043  1.00  0.00    +0.000 C 
ATOM     64  C53 UNL A   1      17.783  51.205  -1.225  1.00  0.00    +0.000 C 
ATOM     65  C54 UNL A   1      16.907  50.788  -0.233  1.00  0.00    +0.000 C 
ATOM     66  N4  UNL A   1      16.613  51.907   0.524  1.00  0.00    +0.000 N 
ATOM     67  C55 UNL A   1      16.382  49.467   0.003  1.00  0.00    +0.000 C 
ATOM     79  C62 UNL A   1      15.513  49.119   0.985  1.00  0.00    +0.000 C 
ATOM     80  N5  UNL A   1      14.946  49.904   1.978  1.00  0.00    +0.000 N 
ATOM     81  C63 UNL A   1      14.163  49.109   2.668  1.00  0.00    +0.000 C 
ATOM     82  C64 UNL A   1      13.324  49.416   3.882  1.00  0.00    +0.000 C 
ATOM     94  C71 UNL A   1      13.374  50.660   4.393  1.00  0.00    +0.000 C 
ATOM     95  C72 UNL A   1      12.663  51.138   5.576  1.00  0.00    +0.000 C 
ATOM     96  C73 UNL A   1      12.974  52.429   5.781  1.00  0.00    +0.000 C 
ATOM     97  C74 UNL A   1      13.927  52.856   4.756  1.00  0.00    +0.000 C 
ATOM     98  N6  UNL A   1      14.084  51.753   3.962  1.00  0.00    +0.000 N 
ATOM     99  C75 UNL A   1      14.120  47.729   2.167  1.00  0.00    +0.000 C 
ATOM    100  C76 UNL A   1      14.994  47.779   1.171  1.00  0.00    +0.000 C 
ATOM    101  C77 UNL A   1      16.491  55.900   2.338  1.00  0.00    +0.000 C 
ATOM    102  C78 UNL A   1      15.943  55.817   3.539  1.00  0.00    +0.000 C 
ENDROOT
BRANCH   46   45
ATOM    164  H60 UNL A   1      15.284  56.681   8.403  1.00  0.00    +0.000 H 
ATOM    165  H61 UNL A   1      15.726  54.733   7.006  1.00  0.00    +0.000 H 
ATOM    103  C79 UNL A   1      13.079  55.981   5.335  1.00  0.00    +0.000 C 
ATOM    104  C80 UNL A   1      12.917  57.149   6.047  1.00  0.00    +0.000 C 
ATOM     42  C37 UNL A   1      13.714  57.387   7.174  1.00  0.00    +0.000 C 
ATOM     43  C38 UNL A   1      14.722  56.505   7.555  1.00  0.00    +0.000 C 
ATOM     44  C39 UNL A   1      14.957  55.380   6.767  1.00  0.00    +0.000 C 
ATOM     45  C40 UNL A   1      14.146  55.127   5.647  1.00  0.00    +0.000 C 
ATOM    176  H72 UNL A   1      12.423  55.737   4.578  1.00  0.00    +0.000 H 
ATOM    177  H73 UNL A   1      12.213  57.844   5.753  1.00  0.00    +0.000 H 
BRANCH   42   40
ATOM     41  O3  UNL A   1      12.445  58.464   8.853  1.00  0.00    +0.000 O 
ATOM     40  C36 UNL A   1      13.335  58.522   8.046  1.00  0.00    +0.000 C 
BRANCH   40   39
ATOM    163  H59 UNL A   1      15.023  59.696   8.203  1.00  0.00    +0.000 H 
ATOM     39  N2  UNL A   1      14.105  59.654   7.850  1.00  0.00    +0.000 N 
BRANCH   39   38
ATOM    161  H57 UNL A   1      14.143  60.976   6.255  1.00  0.00    +0.000 H 
ATOM    162  H58 UNL A   1      12.551  60.562   6.805  1.00  0.00    +0.000 H 
ATOM     38  C35 UNL A   1      13.550  60.776   7.123  1.00  0.00    +0.000 C 
BRANCH   38   37
ATOM     37  C34 UNL A   1      13.568  61.971   8.043  1.00  0.00    +0.000 C 
ATOM    159  H55 UNL A   1      14.071  62.774   7.545  1.00  0.00    +0.000 H 
ATOM    160  H56 UNL A   1      12.550  62.207   8.271  1.00  0.00    +0.000 H 
BRANCH   37   36
ATOM     36  C33 UNL A   1      14.298  61.703   9.417  1.00  0.00    +0.000 C 
ATOM    157  H53 UNL A   1      14.678  60.704   9.353  1.00  0.00    +0.000 H 
ATOM    158  H54 UNL A   1      14.960  62.542   9.460  1.00  0.00    +0.000 H 
BRANCH   36   35
ATOM     35  C32 UNL A   1      13.558  61.809  10.907  1.00  0.00    +0.000 C 
ATOM    156  H52 UNL A   1      13.289  62.840  10.807  1.00  0.00    +0.000 H 
ATOM    155  H51 UNL A   1      14.253  61.319  11.556  1.00  0.00    +0.000 H 
BRANCH   35   34
ATOM    153  H49 UNL A   1      12.217  60.501  12.255  1.00  0.00    +0.000 H 
ATOM     34  C31 UNL A   1      11.929  61.282  11.583  1.00  0.00    +0.000 C 
ATOM    154  H50 UNL A   1      11.579  62.289  11.671  1.00  0.00    +0.000 H 
BRANCH   34   33
ATOM     33  C30 UNL A   1      10.071  60.582  10.892  1.00  0.00    +0.000 C 
ATOM    151  H47 UNL A   1       9.462  60.664  11.769  1.00  0.00    +0.000 H 
ATOM    152  H48 UNL A   1      10.138  61.116   9.968  1.00  0.00    +0.000 H 
BRANCH   33   32
ATOM    150  H46 UNL A   1       9.791  59.232   9.297  1.00  0.00    +0.000 H 
ATOM     32  N1  UNL A   1       9.509  59.331  10.235  1.00  0.00    +0.000 N 
BRANCH   32   30
ATOM     30  C29 UNL A   1       8.705  58.320  10.652  1.00  0.00    +0.000 C 
ATOM     31  O2  UNL A   1       7.546  58.658  10.926  1.00  0.00    +0.000 O 
BRANCH   30   29
ATOM    149  H45 UNL A   1       9.570  56.713   9.818  1.00  0.00    +0.000 H 
ATOM    148  H44 UNL A   1       8.197  56.344  11.036  1.00  0.00    +0.000 H 
ATOM     29  C28 UNL A   1       9.095  56.857  10.767  1.00  0.00    +0.000 C 
BRANCH   29   28
ATOM    146  H42 UNL A   1      10.633  55.469  11.200  1.00  0.00    +0.000 H 
ATOM    147  H43 UNL A   1      10.826  57.126  11.893  1.00  0.00    +0.000 H 
ATOM     28  C27 UNL A   1      10.177  56.297  11.699  1.00  0.00    +0.000 C 
BRANCH   28   27
ATOM      3  C3  UNL A   1      10.166  56.752  14.266  1.00  0.00    +0.000 C 
ATOM      4  C4  UNL A   1      11.141  56.103  15.278  1.00  0.00    +0.000 C 
ATOM      6  C5  UNL A   1      10.925  54.603  15.483  1.00  0.00    +0.000 C 
ATOM      7  C6  UNL A   1      11.145  53.869  14.121  1.00  0.00    +0.000 C 
ATOM      8  C7  UNL A   1       9.600  54.237  13.112  1.00  0.00    +0.000 C 
ATOM      9  C8  UNL A   1       9.003  53.099  11.662  1.00  0.00    +0.000 C 
ATOM     10  C9  UNL A   1      10.016  51.493  11.247  1.00  0.00    +0.000 C 
ATOM     11  C10 UNL A   1      11.671  51.077  12.226  1.00  0.00    +0.000 C 
ATOM    139  H35 UNL A   1      13.988  52.909  14.269  1.00  0.00    +0.000 H 
ATOM    140  H36 UNL A   1      13.779  51.159  14.546  1.00  0.00    +0.000 H 
ATOM     13  C12 UNL A   1      13.151  51.360  11.418  1.00  0.00    +0.000 C 
ATOM    137  H33 UNL A   1      14.773  52.523  12.241  1.00  0.00    +0.000 H 
ATOM    144  H40 UNL A   1       8.060  55.229  14.386  1.00  0.00    +0.000 H 
ATOM    145  H41 UNL A   1       7.457  55.236  12.985  1.00  0.00    +0.000 H 
ATOM    138  H34 UNL A   1      14.784  50.795  12.677  1.00  0.00    +0.000 H 
ATOM     22  C21 UNL A   1      14.193  51.678  12.548  1.00  0.00    +0.000 C 
ATOM     23  C22 UNL A   1      13.566  51.994  13.910  1.00  0.00    +0.000 C 
ATOM     24  C23 UNL A   1      12.028  52.148  13.884  1.00  0.00    +0.000 C 
ATOM     26  C25 UNL A   1       8.444  55.158  13.389  1.00  0.00    +0.000 C 
ATOM     27  C26 UNL A   1       9.742  55.824  13.057  1.00  0.00    +0.000 C 
ATOM    108  H4  UNL A   1       9.244  56.859  14.798  1.00  0.00    +0.000 H 
ATOM    109  H5  UNL A   1      12.109  56.251  14.844  1.00  0.00    +0.000 H 
ATOM    111  H7  UNL A   1       9.928  54.428  15.828  1.00  0.00    +0.000 H 
ATOM    112  H8  UNL A   1      11.617  54.232  16.210  1.00  0.00    +0.000 H 
ATOM    113  H9  UNL A   1      12.063  54.261  13.734  1.00  0.00    +0.000 H 
ATOM    114  H10 UNL A   1       8.992  53.699  10.777  1.00  0.00    +0.000 H 
ATOM    115  H11 UNL A   1       8.060  52.726  12.000  1.00  0.00    +0.000 H 
ATOM    116  H12 UNL A   1      10.278  51.554  10.212  1.00  0.00    +0.000 H 
ATOM    117  H13 UNL A   1       9.355  50.706  11.547  1.00  0.00    +0.000 H 
ATOM    121  H17 UNL A   1      13.214  50.488  10.802  1.00  0.00    +0.000 H 
BRANCH    3    2
ATOM      2  C2  UNL A   1      10.558  58.180  13.887  1.00  0.00    +0.000 C 
ATOM    107  H3  UNL A   1      11.367  58.276  13.254  1.00  0.00    +0.000 H 
BRANCH    2    1
ATOM      1  C1  UNL A   1       9.976  59.325  14.279  1.00  0.00    +0.000 C 
ATOM    106  H2  UNL A   1       9.932  59.566  15.280  1.00  0.00    +0.000 H 
ATOM    105  H1  UNL A   1       9.573  59.966  13.576  1.00  0.00    +0.000 H 
ENDBRANCH    2    1
ENDBRANCH    3    2
BRANCH    4    5
ATOM      5  O1  UNL A   1      11.037  56.723  16.567  1.00  0.00    +0.000 O 
ATOM    110  H6  UNL A   1      11.870  57.174  16.777  1.00  0.00    +0.000 H 
ENDBRANCH    4    5
BRANCH   11   12
ATOM     12  C11 UNL A   1      11.693  49.501  12.021  1.00  0.00    +0.000 C 
ATOM    118  H14 UNL A   1      11.155  49.030  12.817  1.00  0.00    +0.000 H 
ATOM    119  H15 UNL A   1      12.705  49.155  12.020  1.00  0.00    +0.000 H 
ATOM    120  H16 UNL A   1      11.232  49.257  11.086  1.00  0.00    +0.000 H 
ENDBRANCH   11   12
BRANCH   13   14
ATOM    122  H18 UNL A   1      12.397  51.792   9.681  1.00  0.00    +0.000 H 
ATOM     14  C13 UNL A   1      13.436  51.923   9.899  1.00  0.00    +0.000 C 
BRANCH   14   15
ATOM    123  H19 UNL A   1      14.635  51.446   8.180  1.00  0.00    +0.000 H 
ATOM    124  H20 UNL A   1      14.286  50.075   9.205  1.00  0.00    +0.000 H 
ATOM    125  H21 UNL A   1      15.471  51.259   9.703  1.00  0.00    +0.000 H 
ATOM     15  C14 UNL A   1      14.541  51.114   9.193  1.00  0.00    +0.000 C 
ENDBRANCH   14   15
BRANCH   14   16
ATOM    126  H22 UNL A   1      13.466  53.343   8.274  1.00  0.00    +0.000 H 
ATOM    127  H23 UNL A   1      14.286  53.846   9.844  1.00  0.00    +0.000 H 
ATOM     16  C15 UNL A   1      13.445  53.419   9.341  1.00  0.00    +0.000 C 
BRANCH   16   17
ATOM     17  C16 UNL A   1      12.308  54.425   9.683  1.00  0.00    +0.000 C 
ATOM    129  H25 UNL A   1      11.634  53.860  10.293  1.00  0.00    +0.000 H 
ATOM    128  H24 UNL A   1      12.768  55.274  10.147  1.00  0.00    +0.000 H 
BRANCH   17   18
ATOM     18  C17 UNL A   1      11.431  54.953   8.548  1.00  0.00    +0.000 C 
ATOM    130  H26 UNL A   1      11.526  55.962   8.349  1.00  0.00    +0.000 H 
BRANCH   18   19
ATOM     19  C18 UNL A   1      10.546  54.287   7.764  1.00  0.00    +0.000 C 
BRANCH   19   20
ATOM    133  H29 UNL A   1      10.125  52.296   7.164  1.00  0.00    +0.000 H 
ATOM    131  H27 UNL A   1       9.123  52.883   8.471  1.00  0.00    +0.000 H 
ATOM     20  C19 UNL A   1      10.114  52.873   8.066  1.00  0.00    +0.000 C 
ATOM    132  H28 UNL A   1      10.785  52.437   8.776  1.00  0.00    +0.000 H 
ENDBRANCH   19   20
BRANCH   19   21
ATOM     21  C20 UNL A   1       9.923  54.766   6.485  1.00  0.00    +0.000 C 
ATOM    134  H30 UNL A   1      10.674  55.208   5.866  1.00  0.00    +0.000 H 
ATOM    135  H31 UNL A   1       9.170  55.492   6.706  1.00  0.00    +0.000 H 
ATOM    136  H32 UNL A   1       9.481  53.937   5.972  1.00  0.00    +0.000 H 
ENDBRANCH   19   21
ENDBRANCH   18   19
ENDBRANCH   17   18
ENDBRANCH   16   17
ENDBRANCH   14   16
ENDBRANCH   13   14
BRANCH   24   25
ATOM     25  C24 UNL A   1      11.729  51.882  15.416  1.00  0.00    +0.000 C 
ATOM    141  H37 UNL A   1      11.929  52.770  15.977  1.00  0.00    +0.000 H 
ATOM    142  H38 UNL A   1      12.354  51.089  15.769  1.00  0.00    +0.000 H 
ATOM    143  H39 UNL A   1      10.702  51.608  15.536  1.00  0.00    +0.000 H 
ENDBRANCH   24   25
ENDBRANCH   28   27
ENDBRANCH   29   28
ENDBRANCH   30   29
ENDBRANCH   32   30
ENDBRANCH   33   32
ENDBRANCH   34   33
ENDBRANCH   35   34
ENDBRANCH   36   35
ENDBRANCH   37   36
ENDBRANCH   38   37
ENDBRANCH   39   38
ENDBRANCH   40   39
ENDBRANCH   42   40
ENDBRANCH   46   45
BRANCH   50   51
ATOM     51  C45 UNL A   1      17.980  55.447  -0.056  1.00  0.00    +0.000 C 
ATOM     52  C46 UNL A   1      17.494  56.105  -1.199  1.00  0.00    +0.000 C 
ATOM     53  F1  UNL A   1      16.329  55.730  -1.749  1.00  0.00    +0.000 F 
ATOM     54  C47 UNL A   1      18.232  57.107  -1.821  1.00  0.00    +0.000 C 
ATOM     55  F2  UNL A   1      17.779  57.666  -2.952  1.00  0.00    +0.000 F 
ATOM     56  C48 UNL A   1      19.447  57.509  -1.287  1.00  0.00    +0.000 C 
ATOM     57  F3  UNL A   1      20.156  58.476  -1.885  1.00  0.00    +0.000 F 
ATOM     58  C49 UNL A   1      19.931  56.900  -0.139  1.00  0.00    +0.000 C 
ATOM     59  F4  UNL A   1      21.100  57.293   0.384  1.00  0.00    +0.000 F 
ATOM     60  C50 UNL A   1      19.213  55.869   0.464  1.00  0.00    +0.000 C 
ATOM     61  F5  UNL A   1      19.727  55.276   1.552  1.00  0.00    +0.000 F 
ENDBRANCH   50   51
BRANCH   67   68
ATOM     68  C56 UNL A   1      16.854  48.380  -0.914  1.00  0.00    +0.000 C 
ATOM     69  C57 UNL A   1      16.139  48.031  -2.068  1.00  0.00    +0.000 C 
ATOM     70  F6  UNL A   1      14.959  48.611  -2.332  1.00  0.00    +0.000 F 
ATOM     71  C58 UNL A   1      16.625  47.062  -2.939  1.00  0.00    +0.000 C 
ATOM     72  F7  UNL A   1      15.907  46.714  -4.017  1.00  0.00    +0.000 F 
ATOM     73  C59 UNL A   1      17.847  46.454  -2.693  1.00  0.00    +0.000 C 
ATOM     74  F8  UNL A   1      18.321  45.533  -3.545  1.00  0.00    +0.000 F 
ATOM     75  C60 UNL A   1      18.577  46.795  -1.566  1.00  0.00    +0.000 C 
ATOM     76  F9  UNL A   1      19.767  46.223  -1.337  1.00  0.00    +0.000 F 
ATOM     77  C61 UNL A   1      18.079  47.738  -0.674  1.00  0.00    +0.000 C 
ATOM     78  F10 UNL A   1      18.805  48.049   0.410  1.00  0.00    +0.000 F 
ENDBRANCH   67   68
BRANCH   82   83
ATOM     83  C65 UNL A   1      12.503  48.369   4.544  1.00  0.00    +0.000 C 
ATOM     84  C66 UNL A   1      13.010  47.632   5.624  1.00  0.00    +0.000 C 
ATOM     85  F11 UNL A   1      14.257  47.858   6.062  1.00  0.00    +0.000 F 
ATOM     86  C67 UNL A   1      12.255  46.631   6.233  1.00  0.00    +0.000 C 
ATOM     87  F12 UNL A   1      12.783  45.911   7.232  1.00  0.00    +0.000 F 
ATOM     88  C68 UNL A   1      10.966  46.369   5.797  1.00  0.00    +0.000 C 
ATOM     89  F13 UNL A   1      10.239  45.409   6.384  1.00  0.00    +0.000 F 
ATOM     90  C69 UNL A   1      10.433  47.101   4.745  1.00  0.00    +0.000 C 
ATOM     91  F14 UNL A   1       9.182  46.861   4.331  1.00  0.00    +0.000 F 
ATOM     92  C70 UNL A   1      11.198  48.082   4.117  1.00  0.00    +0.000 C 
ATOM     93  F15 UNL A   1      10.661  48.765   3.096  1.00  0.00    +0.000 F 
ENDBRANCH   82   83
TORSDOF 30
ENDMDL
MODEL 9
REMARK VINA RESULT:      -8.2      4.998     13.299
ROOT
ATOM    166  H62 UNL A   1      44.030  44.117  22.883  1.00  0.00    +0.000 H 
ATOM    167  H63 UNL A   1      43.343  45.169  20.600  1.00  0.00    +0.000 H 
ATOM    168  H64 UNL A   1      47.396  44.350  20.476  1.00  0.00    +0.000 H 
ATOM    169  H65 UNL A   1      52.977  44.665  17.306  1.00  0.00    +0.000 H 
ATOM    170  H66 UNL A   1      53.640  43.699  19.563  1.00  0.00    +0.000 H 
ATOM    171  H67 UNL A   1      49.541  44.375  19.628  1.00  0.00    +0.000 H 
ATOM    172  H68 UNL A   1      48.301  46.336  15.223  1.00  0.00    +0.000 H 
ATOM    173  H69 UNL A   1      45.948  46.616  16.190  1.00  0.00    +0.000 H 
ATOM     46  C41 UNL A   1      51.479  43.481  21.415  1.00  0.00    +0.000 C 
ATOM     47  C42 UNL A   1      50.191  43.367  22.188  1.00  0.00    +0.000 C 
ATOM     48  N3  UNL A   1      48.964  43.580  21.796  1.00  0.00    +0.000 N 
ATOM    175  H71 UNL A   1      51.140  42.741  24.156  1.00  0.00    +0.000 H 
ATOM     49  C43 UNL A   1      48.165  43.214  22.872  1.00  0.00    +0.000 C 
ATOM    174  H70 UNL A   1      48.705  42.187  24.743  1.00  0.00    +0.000 H 
ATOM     50  C44 UNL A   1      46.830  43.371  23.020  1.00  0.00    +0.000 C 
ATOM     62  C51 UNL A   1      46.004  43.992  22.025  1.00  0.00    +0.000 C 
ATOM     63  C52 UNL A   1      44.657  44.291  22.083  1.00  0.00    +0.000 C 
ATOM     64  C53 UNL A   1      44.295  44.871  20.864  1.00  0.00    +0.000 C 
ATOM     65  C54 UNL A   1      45.426  44.981  20.068  1.00  0.00    +0.000 C 
ATOM     66  N4  UNL A   1      46.466  44.426  20.791  1.00  0.00    +0.000 N 
ATOM     67  C55 UNL A   1      45.544  45.550  18.750  1.00  0.00    +0.000 C 
ATOM     79  C62 UNL A   1      46.679  45.618  18.011  1.00  0.00    +0.000 C 
ATOM     80  N5  UNL A   1      47.961  45.191  18.324  1.00  0.00    +0.000 N 
ATOM     81  C63 UNL A   1      48.702  45.463  17.276  1.00  0.00    +0.000 C 
ATOM     82  C64 UNL A   1      50.180  45.247  17.072  1.00  0.00    +0.000 C 
ATOM     94  C71 UNL A   1      50.896  44.735  18.090  1.00  0.00    +0.000 C 
ATOM     95  C72 UNL A   1      52.335  44.484  18.094  1.00  0.00    +0.000 C 
ATOM     96  C73 UNL A   1      52.687  43.982  19.289  1.00  0.00    +0.000 C 
ATOM     97  C74 UNL A   1      51.499  43.904  20.140  1.00  0.00    +0.000 C 
ATOM     98  N6  UNL A   1      50.481  44.343  19.338  1.00  0.00    +0.000 N 
ATOM     99  C75 UNL A   1      47.963  46.068  16.162  1.00  0.00    +0.000 C 
ATOM    100  C76 UNL A   1      46.746  46.181  16.678  1.00  0.00    +0.000 C 
ATOM    101  C77 UNL A   1      49.029  42.671  23.890  1.00  0.00    +0.000 C 
ATOM    102  C78 UNL A   1      50.296  42.881  23.578  1.00  0.00    +0.000 C 
ENDROOT
BRANCH   46   45
ATOM    164  H60 UNL A   1      55.023  40.586  22.077  1.00  0.00    +0.000 H 
ATOM    165  H61 UNL A   1      52.819  41.116  21.182  1.00  0.00    +0.000 H 
ATOM    103  C79 UNL A   1      53.377  43.958  22.904  1.00  0.00    +0.000 C 
ATOM    104  C80 UNL A   1      54.674  43.711  23.296  1.00  0.00    +0.000 C 
ATOM     42  C37 UNL A   1      55.259  42.472  23.005  1.00  0.00    +0.000 C 
ATOM     43  C38 UNL A   1      54.589  41.504  22.262  1.00  0.00    +0.000 C 
ATOM     44  C39 UNL A   1      53.320  41.802  21.771  1.00  0.00    +0.000 C 
ATOM     45  C40 UNL A   1      52.720  43.035  22.078  1.00  0.00    +0.000 C 
ATOM    176  H72 UNL A   1      52.893  44.815  23.214  1.00  0.00    +0.000 H 
ATOM    177  H73 UNL A   1      55.211  44.433  23.802  1.00  0.00    +0.000 H 
BRANCH   42   40
ATOM     41  O3  UNL A   1      56.640  41.835  24.815  1.00  0.00    +0.000 O 
ATOM     40  C36 UNL A   1      56.549  42.160  23.661  1.00  0.00    +0.000 C 
BRANCH   40   39
ATOM    163  H59 UNL A   1      58.026  41.470  22.398  1.00  0.00    +0.000 H 
ATOM     39  N2  UNL A   1      57.642  42.272  22.821  1.00  0.00    +0.000 N 
BRANCH   39   38
ATOM    161  H57 UNL A   1      57.493  44.339  22.772  1.00  0.00    +0.000 H 
ATOM    162  H58 UNL A   1      59.065  43.742  23.198  1.00  0.00    +0.000 H 
ATOM     38  C35 UNL A   1      58.216  43.576  22.568  1.00  0.00    +0.000 C 
BRANCH   38   37
ATOM     37  C34 UNL A   1      58.618  43.626  21.115  1.00  0.00    +0.000 C 
ATOM    159  H55 UNL A   1      59.634  43.954  21.056  1.00  0.00    +0.000 H 
ATOM    160  H56 UNL A   1      58.483  42.641  20.719  1.00  0.00    +0.000 H 
BRANCH   37   36
ATOM     36  C33 UNL A   1      57.729  44.598  20.245  1.00  0.00    +0.000 C 
ATOM    157  H53 UNL A   1      58.394  45.356  19.888  1.00  0.00    +0.000 H 
ATOM    158  H54 UNL A   1      57.273  43.904  19.570  1.00  0.00    +0.000 H 
BRANCH   36   35
ATOM     35  C32 UNL A   1      56.388  45.406  20.818  1.00  0.00    +0.000 C 
ATOM    156  H52 UNL A   1      56.936  46.249  21.187  1.00  0.00    +0.000 H 
ATOM    155  H51 UNL A   1      55.845  44.638  21.327  1.00  0.00    +0.000 H 
BRANCH   35   34
ATOM    153  H49 UNL A   1      54.803  45.811  19.191  1.00  0.00    +0.000 H 
ATOM     34  C31 UNL A   1      55.051  46.406  20.044  1.00  0.00    +0.000 C 
ATOM    154  H50 UNL A   1      54.600  46.633  20.987  1.00  0.00    +0.000 H 
BRANCH   34   33
ATOM     33  C30 UNL A   1      54.742  48.351  19.308  1.00  0.00    +0.000 C 
ATOM    151  H47 UNL A   1      55.734  48.648  19.038  1.00  0.00    +0.000 H 
ATOM    152  H48 UNL A   1      53.861  48.077  18.766  1.00  0.00    +0.000 H 
BRANCH   33   32
ATOM    150  H46 UNL A   1      53.979  49.668  20.768  1.00  0.00    +0.000 H 
ATOM     32  N1  UNL A   1      54.145  49.662  19.798  1.00  0.00    +0.000 N 
BRANCH   32   30
ATOM     30  C29 UNL A   1      53.788  50.825  19.196  1.00  0.00    +0.000 C 
ATOM     31  O2  UNL A   1      54.674  51.344  18.504  1.00  0.00    +0.000 O 
BRANCH   30   29
ATOM    149  H45 UNL A   1      52.593  52.338  18.641  1.00  0.00    +0.000 H 
ATOM    148  H44 UNL A   1      52.218  51.592  20.317  1.00  0.00    +0.000 H 
ATOM     29  C28 UNL A   1      52.426  51.490  19.273  1.00  0.00    +0.000 C 
BRANCH   29   28
ATOM    146  H42 UNL A   1      50.866  51.588  17.846  1.00  0.00    +0.000 H 
ATOM    147  H43 UNL A   1      51.371  49.936  18.375  1.00  0.00    +0.000 H 
ATOM     28  C27 UNL A   1      51.134  50.942  18.654  1.00  0.00    +0.000 C 
BRANCH   28   27
ATOM      3  C3  UNL A   1      49.564  49.344  19.989  1.00  0.00    +0.000 C 
ATOM      4  C4  UNL A   1      48.190  48.839  19.486  1.00  0.00    +0.000 C 
ATOM      6  C5  UNL A   1      47.115  49.924  19.404  1.00  0.00    +0.000 C 
ATOM      7  C6  UNL A   1      47.581  51.023  18.395  1.00  0.00    +0.000 C 
ATOM      8  C7  UNL A   1      48.896  52.004  19.315  1.00  0.00    +0.000 C 
ATOM      9  C8  UNL A   1      49.344  53.834  18.859  1.00  0.00    +0.000 C 
ATOM     10  C9  UNL A   1      48.378  54.709  17.418  1.00  0.00    +0.000 C 
ATOM     11  C10 UNL A   1      47.030  53.723  16.379  1.00  0.00    +0.000 C 
ATOM    139  H35 UNL A   1      46.219  50.268  15.826  1.00  0.00    +0.000 H 
ATOM    140  H36 UNL A   1      44.928  51.494  15.712  1.00  0.00    +0.000 H 
ATOM     13  C12 UNL A   1      47.473  53.206  14.811  1.00  0.00    +0.000 C 
ATOM    137  H33 UNL A   1      47.270  51.175  14.107  1.00  0.00    +0.000 H 
ATOM    144  H40 UNL A   1      48.956  51.401  21.462  1.00  0.00    +0.000 H 
ATOM    145  H41 UNL A   1      50.112  52.382  21.311  1.00  0.00    +0.000 H 
ATOM    138  H34 UNL A   1      45.828  52.199  13.888  1.00  0.00    +0.000 H 
ATOM     22  C21 UNL A   1      46.626  51.912  14.540  1.00  0.00    +0.000 C 
ATOM     23  C22 UNL A   1      45.979  51.311  15.792  1.00  0.00    +0.000 C 
ATOM     24  C23 UNL A   1      46.439  51.955  17.120  1.00  0.00    +0.000 C 
ATOM     26  C25 UNL A   1      49.549  51.761  20.648  1.00  0.00    +0.000 C 
ATOM     27  C26 UNL A   1      49.935  50.819  19.551  1.00  0.00    +0.000 C 
ATOM    108  H4  UNL A   1      49.451  49.448  21.047  1.00  0.00    +0.000 H 
ATOM    109  H5  UNL A   1      48.388  48.480  18.496  1.00  0.00    +0.000 H 
ATOM    111  H7  UNL A   1      46.972  50.361  20.370  1.00  0.00    +0.000 H 
ATOM    112  H8  UNL A   1      46.192  49.496  19.072  1.00  0.00    +0.000 H 
ATOM    113  H9  UNL A   1      47.913  50.490  17.529  1.00  0.00    +0.000 H 
ATOM    114  H10 UNL A   1      50.380  53.846  18.594  1.00  0.00    +0.000 H 
ATOM    115  H11 UNL A   1      49.066  54.391  19.729  1.00  0.00    +0.000 H 
ATOM    116  H12 UNL A   1      49.113  55.052  16.720  1.00  0.00    +0.000 H 
ATOM    117  H13 UNL A   1      47.796  55.447  17.930  1.00  0.00    +0.000 H 
ATOM    121  H17 UNL A   1      47.341  54.110  14.255  1.00  0.00    +0.000 H 
BRANCH    3    2
ATOM      2  C2  UNL A   1      50.680  48.313  19.822  1.00  0.00    +0.000 C 
ATOM    107  H3  UNL A   1      50.981  48.122  18.853  1.00  0.00    +0.000 H 
BRANCH    2    1
ATOM      1  C1  UNL A   1      51.317  47.626  20.784  1.00  0.00    +0.000 C 
ATOM    106  H2  UNL A   1      50.816  46.900  21.318  1.00  0.00    +0.000 H 
ATOM    105  H1  UNL A   1      52.309  47.824  20.989  1.00  0.00    +0.000 H 
ENDBRANCH    2    1
ENDBRANCH    3    2
BRANCH    4    5
ATOM      5  O1  UNL A   1      47.678  47.802  20.333  1.00  0.00    +0.000 O 
ATOM    110  H6  UNL A   1      47.237  47.129  19.791  1.00  0.00    +0.000 H 
ENDBRANCH    4    5
BRANCH   11   12
ATOM     12  C11 UNL A   1      46.150  54.952  15.883  1.00  0.00    +0.000 C 
ATOM    118  H14 UNL A   1      46.641  55.433  15.063  1.00  0.00    +0.000 H 
ATOM    119  H15 UNL A   1      46.027  55.648  16.684  1.00  0.00    +0.000 H 
ATOM    120  H16 UNL A   1      45.192  54.598  15.565  1.00  0.00    +0.000 H 
ENDBRANCH   11   12
BRANCH   13   14
ATOM    122  H18 UNL A   1      48.907  54.426  14.337  1.00  0.00    +0.000 H 
ATOM     14  C13 UNL A   1      48.880  53.416  13.986  1.00  0.00    +0.000 C 
BRANCH   14   15
ATOM    123  H19 UNL A   1      49.277  53.753  11.900  1.00  0.00    +0.000 H 
ATOM    124  H20 UNL A   1      47.688  53.103  12.225  1.00  0.00    +0.000 H 
ATOM    125  H21 UNL A   1      49.093  52.068  12.325  1.00  0.00    +0.000 H 
ATOM     15  C14 UNL A   1      48.723  53.058  12.495  1.00  0.00    +0.000 C 
ENDBRANCH   14   15
BRANCH   14   16
ATOM    126  H22 UNL A   1      50.575  53.776  15.273  1.00  0.00    +0.000 H 
ATOM    127  H23 UNL A   1      50.931  53.307  13.528  1.00  0.00    +0.000 H 
ATOM     16  C15 UNL A   1      50.388  53.139  14.434  1.00  0.00    +0.000 C 
BRANCH   16   17
ATOM     17  C16 UNL A   1      50.868  51.718  14.850  1.00  0.00    +0.000 C 
ATOM    129  H25 UNL A   1      51.919  51.729  14.649  1.00  0.00    +0.000 H 
ATOM    128  H24 UNL A   1      50.583  51.576  15.873  1.00  0.00    +0.000 H 
BRANCH   17   18
ATOM     18  C17 UNL A   1      50.350  50.512  14.067  1.00  0.00    +0.000 C 
ATOM    130  H26 UNL A   1      50.749  50.394  13.123  1.00  0.00    +0.000 H 
BRANCH   18   19
ATOM     19  C18 UNL A   1      49.443  49.572  14.436  1.00  0.00    +0.000 C 
BRANCH   19   20
ATOM    133  H29 UNL A   1      47.946  49.608  15.940  1.00  0.00    +0.000 H 
ATOM    131  H27 UNL A   1      49.533  50.095  16.490  1.00  0.00    +0.000 H 
ATOM     20  C19 UNL A   1      48.996  49.408  15.869  1.00  0.00    +0.000 C 
ATOM    132  H28 UNL A   1      49.191  48.407  16.192  1.00  0.00    +0.000 H 
ENDBRANCH   19   20
BRANCH   19   21
ATOM     21  C20 UNL A   1      48.804  48.531  13.564  1.00  0.00    +0.000 C 
ATOM    134  H30 UNL A   1      48.816  48.863  12.547  1.00  0.00    +0.000 H 
ATOM    135  H31 UNL A   1      47.794  48.375  13.877  1.00  0.00    +0.000 H 
ATOM    136  H32 UNL A   1      49.350  47.614  13.646  1.00  0.00    +0.000 H 
ENDBRANCH   19   21
ENDBRANCH   18   19
ENDBRANCH   17   18
ENDBRANCH   16   17
ENDBRANCH   14   16
ENDBRANCH   13   14
BRANCH   24   25
ATOM     25  C24 UNL A   1      45.219  51.531  18.035  1.00  0.00    +0.000 C 
ATOM    141  H37 UNL A   1      44.900  50.545  17.769  1.00  0.00    +0.000 H 
ATOM    142  H38 UNL A   1      44.411  52.218  17.892  1.00  0.00    +0.000 H 
ATOM    143  H39 UNL A   1      45.522  51.544  19.061  1.00  0.00    +0.000 H 
ENDBRANCH   24   25
ENDBRANCH   28   27
ENDBRANCH   29   28
ENDBRANCH   30   29
ENDBRANCH   32   30
ENDBRANCH   33   32
ENDBRANCH   34   33
ENDBRANCH   35   34
ENDBRANCH   36   35
ENDBRANCH   37   36
ENDBRANCH   38   37
ENDBRANCH   39   38
ENDBRANCH   40   39
ENDBRANCH   42   40
ENDBRANCH   46   45
BRANCH   50   51
ATOM     51  C45 UNL A   1      46.212  42.894  24.302  1.00  0.00    +0.000 C 
ATOM     52  C46 UNL A   1      46.007  41.529  24.564  1.00  0.00    +0.000 C 
ATOM     53  F1  UNL A   1      46.359  40.607  23.655  1.00  0.00    +0.000 F 
ATOM     54  C47 UNL A   1      45.380  41.107  25.732  1.00  0.00    +0.000 C 
ATOM     55  F2  UNL A   1      45.130  39.804  25.923  1.00  0.00    +0.000 F 
ATOM     56  C48 UNL A   1      44.990  42.034  26.686  1.00  0.00    +0.000 C 
ATOM     57  F3  UNL A   1      44.388  41.627  27.812  1.00  0.00    +0.000 F 
ATOM     58  C49 UNL A   1      45.213  43.386  26.466  1.00  0.00    +0.000 C 
ATOM     59  F4  UNL A   1      44.845  44.282  27.391  1.00  0.00    +0.000 F 
ATOM     60  C50 UNL A   1      45.805  43.814  25.280  1.00  0.00    +0.000 C 
ATOM     61  F5  UNL A   1      45.974  45.130  25.084  1.00  0.00    +0.000 F 
ENDBRANCH   50   51
BRANCH   67   68
ATOM     68  C56 UNL A   1      44.300  46.134  18.154  1.00  0.00    +0.000 C 
ATOM     69  C57 UNL A   1      43.934  47.468  18.380  1.00  0.00    +0.000 C 
ATOM     70  F6  UNL A   1      44.654  48.234  19.213  1.00  0.00    +0.000 F 
ATOM     71  C58 UNL A   1      42.810  48.011  17.767  1.00  0.00    +0.000 C 
ATOM     72  F7  UNL A   1      42.454  49.277  18.027  1.00  0.00    +0.000 F 
ATOM     73  C59 UNL A   1      42.054  47.243  16.894  1.00  0.00    +0.000 C 
ATOM     74  F8  UNL A   1      40.981  47.775  16.291  1.00  0.00    +0.000 F 
ATOM     75  C60 UNL A   1      42.406  45.926  16.645  1.00  0.00    +0.000 C 
ATOM     76  F9  UNL A   1      41.690  45.189  15.785  1.00  0.00    +0.000 F 
ATOM     77  C61 UNL A   1      43.510  45.369  17.281  1.00  0.00    +0.000 C 
ATOM     78  F10 UNL A   1      43.829  44.092  17.024  1.00  0.00    +0.000 F 
ENDBRANCH   67   68
BRANCH   82   83
ATOM     83  C65 UNL A   1      50.854  45.638  15.806  1.00  0.00    +0.000 C 
ATOM     84  C66 UNL A   1      50.787  44.816  14.671  1.00  0.00    +0.000 C 
ATOM     85  F11 UNL A   1      50.121  43.654  14.725  1.00  0.00    +0.000 F 
ATOM     86  C67 UNL A   1      51.438  45.165  13.489  1.00  0.00    +0.000 C 
ATOM     87  F12 UNL A   1      51.396  44.338  12.435  1.00  0.00    +0.000 F 
ATOM     88  C68 UNL A   1      52.140  46.357  13.406  1.00  0.00    +0.000 C 
ATOM     89  F13 UNL A   1      52.764  46.693  12.268  1.00  0.00    +0.000 F 
ATOM     90  C69 UNL A   1      52.202  47.197  14.508  1.00  0.00    +0.000 C 
ATOM     91  F14 UNL A   1      52.867  48.357  14.427  1.00  0.00    +0.000 F 
ATOM     92  C70 UNL A   1      51.575  46.836  15.699  1.00  0.00    +0.000 C 
ATOM     93  F15 UNL A   1      51.662  47.663  16.752  1.00  0.00    +0.000 F 
ENDBRANCH   82   83
TORSDOF 30
ENDMDL
MODEL 10
REMARK VINA RESULT:      -8.2     33.408     41.115
ROOT
ATOM    166  H62 UNL A   1      18.995  34.044  47.814  1.00  0.00    +0.000 H 
ATOM    167  H63 UNL A   1      17.099  35.330  49.057  1.00  0.00    +0.000 H 
ATOM    168  H64 UNL A   1      20.250  37.943  48.454  1.00  0.00    +0.000 H 
ATOM    169  H65 UNL A   1      22.819  43.762  49.361  1.00  0.00    +0.000 H 
ATOM    170  H66 UNL A   1      24.683  42.474  48.206  1.00  0.00    +0.000 H 
ATOM    171  H67 UNL A   1      21.457  39.895  48.670  1.00  0.00    +0.000 H 
ATOM    172  H68 UNL A   1      17.865  42.435  51.002  1.00  0.00    +0.000 H 
ATOM    173  H69 UNL A   1      16.569  40.229  51.067  1.00  0.00    +0.000 H 
ATOM     46  C41 UNL A   1      24.060  39.735  47.696  1.00  0.00    +0.000 C 
ATOM     47  C42 UNL A   1      23.491  38.363  47.442  1.00  0.00    +0.000 C 
ATOM     48  N3  UNL A   1      22.279  37.917  47.632  1.00  0.00    +0.000 N 
ATOM    175  H71 UNL A   1      25.416  37.438  46.668  1.00  0.00    +0.000 H 
ATOM     49  C43 UNL A   1      22.277  36.626  47.121  1.00  0.00    +0.000 C 
ATOM    174  H70 UNL A   1      23.809  35.576  45.939  1.00  0.00    +0.000 H 
ATOM     50  C44 UNL A   1      21.301  35.692  47.197  1.00  0.00    +0.000 C 
ATOM     62  C51 UNL A   1      20.057  35.920  47.873  1.00  0.00    +0.000 C 
ATOM     63  C52 UNL A   1      19.021  35.035  48.098  1.00  0.00    +0.000 C 
ATOM     64  C53 UNL A   1      18.012  35.722  48.780  1.00  0.00    +0.000 C 
ATOM     65  C54 UNL A   1      18.442  37.019  49.025  1.00  0.00    +0.000 C 
ATOM     66  N4  UNL A   1      19.696  37.128  48.452  1.00  0.00    +0.000 N 
ATOM     67  C55 UNL A   1      17.759  38.073  49.729  1.00  0.00    +0.000 C 
ATOM     79  C62 UNL A   1      18.224  39.331  49.927  1.00  0.00    +0.000 C 
ATOM     80  N5  UNL A   1      19.429  39.896  49.534  1.00  0.00    +0.000 N 
ATOM     81  C63 UNL A   1      19.399  41.142  49.947  1.00  0.00    +0.000 C 
ATOM     82  C64 UNL A   1      20.454  42.212  49.825  1.00  0.00    +0.000 C 
ATOM     94  C71 UNL A   1      21.626  41.888  49.249  1.00  0.00    +0.000 C 
ATOM     95  C72 UNL A   1      22.774  42.772  49.070  1.00  0.00    +0.000 C 
ATOM     96  C73 UNL A   1      23.762  42.089  48.468  1.00  0.00    +0.000 C 
ATOM     97  C74 UNL A   1      23.321  40.712  48.246  1.00  0.00    +0.000 C 
ATOM     98  N6  UNL A   1      22.034  40.692  48.713  1.00  0.00    +0.000 N 
ATOM     99  C75 UNL A   1      18.152  41.517  50.624  1.00  0.00    +0.000 C 
ATOM    100  C76 UNL A   1      17.491  40.368  50.625  1.00  0.00    +0.000 C 
ATOM    101  C77 UNL A   1      23.567  36.394  46.522  1.00  0.00    +0.000 C 
ATOM    102  C78 UNL A   1      24.399  37.376  46.824  1.00  0.00    +0.000 C 
ENDROOT
BRANCH   46   45
ATOM    164  H60 UNL A   1      28.654  39.246  47.888  1.00  0.00    +0.000 H 
ATOM    165  H61 UNL A   1      26.427  39.034  48.857  1.00  0.00    +0.000 H 
ATOM    103  C79 UNL A   1      25.605  40.644  46.013  1.00  0.00    +0.000 C 
ATOM    104  C80 UNL A   1      26.843  40.642  45.409  1.00  0.00    +0.000 C 
ATOM     42  C37 UNL A   1      27.951  40.146  46.108  1.00  0.00    +0.000 C 
ATOM     43  C38 UNL A   1      27.824  39.583  47.375  1.00  0.00    +0.000 C 
ATOM     44  C39 UNL A   1      26.553  39.485  47.936  1.00  0.00    +0.000 C 
ATOM     45  C40 UNL A   1      25.441  40.000  47.248  1.00  0.00    +0.000 C 
ATOM    176  H72 UNL A   1      24.806  41.113  45.561  1.00  0.00    +0.000 H 
ATOM    177  H73 UNL A   1      26.955  41.005  44.449  1.00  0.00    +0.000 H 
BRANCH   42   40
ATOM     41  O3  UNL A   1      30.109  41.110  46.038  1.00  0.00    +0.000 O 
ATOM     40  C36 UNL A   1      29.289  40.396  45.524  1.00  0.00    +0.000 C 
BRANCH   40   39
ATOM    163  H59 UNL A   1      28.825  39.731  43.629  1.00  0.00    +0.000 H 
ATOM     39  N2  UNL A   1      29.510  39.727  44.335  1.00  0.00    +0.000 N 
BRANCH   39   38
ATOM    161  H57 UNL A   1      31.018  39.026  43.097  1.00  0.00    +0.000 H 
ATOM    162  H58 UNL A   1      31.549  39.490  44.682  1.00  0.00    +0.000 H 
ATOM     38  C35 UNL A   1      30.758  39.020  44.136  1.00  0.00    +0.000 C 
BRANCH   38   37
ATOM     37  C34 UNL A   1      30.560  37.601  44.607  1.00  0.00    +0.000 C 
ATOM    159  H55 UNL A   1      31.289  36.981  44.129  1.00  0.00    +0.000 H 
ATOM    160  H56 UNL A   1      30.665  37.607  45.672  1.00  0.00    +0.000 H 
BRANCH   37   36
ATOM     36  C33 UNL A   1      29.127  37.021  44.287  1.00  0.00    +0.000 C 
ATOM    157  H53 UNL A   1      28.583  37.071  45.207  1.00  0.00    +0.000 H 
ATOM    158  H54 UNL A   1      28.848  37.625  43.449  1.00  0.00    +0.000 H 
BRANCH   36   35
ATOM     35  C32 UNL A   1      28.849  35.493  43.681  1.00  0.00    +0.000 C 
ATOM    156  H52 UNL A   1      29.859  35.331  43.365  1.00  0.00    +0.000 H 
ATOM    155  H51 UNL A   1      27.944  35.618  43.123  1.00  0.00    +0.000 H 
BRANCH   35   34
ATOM    153  H49 UNL A   1      27.789  33.455  43.895  1.00  0.00    +0.000 H 
ATOM     34  C31 UNL A   1      28.641  33.824  44.426  1.00  0.00    +0.000 C 
ATOM    154  H50 UNL A   1      29.694  33.633  44.428  1.00  0.00    +0.000 H 
BRANCH   34   33
ATOM     33  C30 UNL A   1      28.371  32.948  46.319  1.00  0.00    +0.000 C 
ATOM    151  H47 UNL A   1      28.084  31.949  46.064  1.00  0.00    +0.000 H 
ATOM    152  H48 UNL A   1      29.251  33.400  46.727  1.00  0.00    +0.000 H 
BRANCH   33   32
ATOM    150  H46 UNL A   1      26.665  32.768  47.545  1.00  0.00    +0.000 H 
ATOM     32  N1  UNL A   1      27.548  33.202  47.573  1.00  0.00    +0.000 N 
BRANCH   32   30
ATOM     30  C29 UNL A   1      27.759  33.893  48.722  1.00  0.00    +0.000 C 
ATOM     31  O2  UNL A   1      28.154  33.208  49.675  1.00  0.00    +0.000 O 
BRANCH   30   29
ATOM    149  H45 UNL A   1      27.423  35.432  49.964  1.00  0.00    +0.000 H 
ATOM    148  H44 UNL A   1      26.841  35.681  48.202  1.00  0.00    +0.000 H 
ATOM     29  C28 UNL A   1      27.590  35.390  48.908  1.00  0.00    +0.000 C 
BRANCH   29   28
ATOM    146  H42 UNL A   1      29.339  36.119  47.967  1.00  0.00    +0.000 H 
ATOM    147  H43 UNL A   1      28.195  37.360  48.611  1.00  0.00    +0.000 H 
ATOM     28  C27 UNL A   1      28.706  36.433  48.769  1.00  0.00    +0.000 C 
BRANCH   28   27
ATOM      3  C3  UNL A   1      30.829  35.715  50.099  1.00  0.00    +0.000 C 
ATOM      4  C4  UNL A   1      30.819  34.793  51.343  1.00  0.00    +0.000 C 
ATOM      6  C5  UNL A   1      30.181  35.423  52.583  1.00  0.00    +0.000 C 
ATOM      7  C6  UNL A   1      28.688  35.762  52.269  1.00  0.00    +0.000 C 
ATOM      8  C7  UNL A   1      28.756  37.297  51.182  1.00  0.00    +0.000 C 
ATOM      9  C8  UNL A   1      27.275  38.538  51.035  1.00  0.00    +0.000 C 
ATOM     10  C9  UNL A   1      25.664  38.210  52.071  1.00  0.00    +0.000 C 
ATOM     11  C10 UNL A   1      25.506  36.595  53.184  1.00  0.00    +0.000 C 
ATOM    139  H35 UNL A   1      27.166  33.416  53.366  1.00  0.00    +0.000 H 
ATOM    140  H36 UNL A   1      26.435  34.101  54.842  1.00  0.00    +0.000 H 
ATOM     13  C12 UNL A   1      24.526  35.328  52.590  1.00  0.00    +0.000 C 
ATOM    137  H33 UNL A   1      25.179  33.278  52.411  1.00  0.00    +0.000 H 
ATOM    144  H40 UNL A   1      30.833  38.110  51.115  1.00  0.00    +0.000 H 
ATOM    145  H41 UNL A   1      30.051  38.981  50.138  1.00  0.00    +0.000 H 
ATOM    138  H34 UNL A   1      24.493  33.717  53.996  1.00  0.00    +0.000 H 
ATOM     22  C21 UNL A   1      25.132  34.010  53.190  1.00  0.00    +0.000 C 
ATOM     23  C22 UNL A   1      26.538  34.177  53.780  1.00  0.00    +0.000 C 
ATOM     24  C23 UNL A   1      27.189  35.550  53.495  1.00  0.00    +0.000 C 
ATOM     26  C25 UNL A   1      29.925  38.006  50.557  1.00  0.00    +0.000 C 
ATOM     27  C26 UNL A   1      29.579  36.675  49.967  1.00  0.00    +0.000 C 
ATOM    108  H4  UNL A   1      31.624  36.409  50.275  1.00  0.00    +0.000 H 
ATOM    109  H5  UNL A   1      30.224  33.954  51.044  1.00  0.00    +0.000 H 
ATOM    111  H7  UNL A   1      30.706  36.317  52.842  1.00  0.00    +0.000 H 
ATOM    112  H8  UNL A   1      30.231  34.737  53.404  1.00  0.00    +0.000 H 
ATOM    113  H9  UNL A   1      28.288  34.881  51.812  1.00  0.00    +0.000 H 
ATOM    114  H10 UNL A   1      26.985  38.559  50.005  1.00  0.00    +0.000 H 
ATOM    115  H11 UNL A   1      27.660  39.448  51.442  1.00  0.00    +0.000 H 
ATOM    116  H12 UNL A   1      24.851  38.184  51.376  1.00  0.00    +0.000 H 
ATOM    117  H13 UNL A   1      25.676  39.000  52.793  1.00  0.00    +0.000 H 
ATOM    121  H17 UNL A   1      23.552  35.686  52.850  1.00  0.00    +0.000 H 
BRANCH    3    2
ATOM      2  C2  UNL A   1      31.233  34.987  48.818  1.00  0.00    +0.000 C 
ATOM    107  H3  UNL A   1      31.398  35.582  47.991  1.00  0.00    +0.000 H 
BRANCH    2    1
ATOM      1  C1  UNL A   1      31.399  33.667  48.638  1.00  0.00    +0.000 C 
ATOM    106  H2  UNL A   1      32.109  33.322  47.973  1.00  0.00    +0.000 H 
ATOM    105  H1  UNL A   1      30.818  32.996  49.166  1.00  0.00    +0.000 H 
ENDBRANCH    2    1
ENDBRANCH    3    2
BRANCH    4    5
ATOM      5  O1  UNL A   1      32.148  34.399  51.707  1.00  0.00    +0.000 O 
ATOM    110  H6  UNL A   1      32.216  34.344  52.673  1.00  0.00    +0.000 H 
ENDBRANCH    4    5
BRANCH   11   12
ATOM     12  C11 UNL A   1      24.438  37.123  54.238  1.00  0.00    +0.000 C 
ATOM    118  H14 UNL A   1      24.869  37.911  54.818  1.00  0.00    +0.000 H 
ATOM    119  H15 UNL A   1      24.148  36.321  54.883  1.00  0.00    +0.000 H 
ATOM    120  H16 UNL A   1      23.578  37.492  53.719  1.00  0.00    +0.000 H 
ENDBRANCH   11   12
BRANCH   13   14
ATOM    122  H18 UNL A   1      23.456  34.202  51.424  1.00  0.00    +0.000 H 
ATOM     14  C13 UNL A   1      23.644  35.232  51.205  1.00  0.00    +0.000 C 
BRANCH   14   15
ATOM    123  H19 UNL A   1      23.824  36.204  49.296  1.00  0.00    +0.000 H 
ATOM    124  H20 UNL A   1      24.882  34.828  49.494  1.00  0.00    +0.000 H 
ATOM    125  H21 UNL A   1      25.250  36.335  50.297  1.00  0.00    +0.000 H 
ATOM     15  C14 UNL A   1      24.463  35.684  49.979  1.00  0.00    +0.000 C 
ENDBRANCH   14   15
BRANCH   14   16
ATOM    126  H22 UNL A   1      21.563  34.664  51.247  1.00  0.00    +0.000 H 
ATOM    127  H23 UNL A   1      22.092  35.816  49.911  1.00  0.00    +0.000 H 
ATOM     16  C15 UNL A   1      22.099  35.539  50.945  1.00  0.00    +0.000 C 
BRANCH   16   17
ATOM     17  C16 UNL A   1      21.382  36.745  51.617  1.00  0.00    +0.000 C 
ATOM    129  H25 UNL A   1      20.407  36.749  51.175  1.00  0.00    +0.000 H 
ATOM    128  H24 UNL A   1      21.421  36.585  52.675  1.00  0.00    +0.000 H 
BRANCH   17   18
ATOM     18  C17 UNL A   1      21.916  38.153  51.355  1.00  0.00    +0.000 C 
ATOM    130  H26 UNL A   1      22.385  38.286  50.445  1.00  0.00    +0.000 H 
BRANCH   18   19
ATOM     19  C18 UNL A   1      21.860  39.255  52.146  1.00  0.00    +0.000 C 
BRANCH   19   20
ATOM    133  H29 UNL A   1      20.965  39.791  53.993  1.00  0.00    +0.000 H 
ATOM    131  H27 UNL A   1      19.991  38.731  53.002  1.00  0.00    +0.000 H 
ATOM     20  C19 UNL A   1      20.652  39.573  52.993  1.00  0.00    +0.000 C 
ATOM    132  H28 UNL A   1      20.143  40.422  52.586  1.00  0.00    +0.000 H 
ENDBRANCH   19   20
BRANCH   19   21
ATOM     21  C20 UNL A   1      22.890  40.339  52.270  1.00  0.00    +0.000 C 
ATOM    134  H30 UNL A   1      22.854  40.754  53.255  1.00  0.00    +0.000 H 
ATOM    135  H31 UNL A   1      22.688  41.106  51.552  1.00  0.00    +0.000 H 
ATOM    136  H32 UNL A   1      23.862  39.929  52.091  1.00  0.00    +0.000 H 
ENDBRANCH   19   21
ENDBRANCH   18   19
ENDBRANCH   17   18
ENDBRANCH   16   17
ENDBRANCH   14   16
ENDBRANCH   13   14
BRANCH   24   25
ATOM     25  C24 UNL A   1      28.256  35.561  54.664  1.00  0.00    +0.000 C 
ATOM    141  H37 UNL A   1      27.984  34.837  55.403  1.00  0.00    +0.000 H 
ATOM    142  H38 UNL A   1      28.286  36.533  55.111  1.00  0.00    +0.000 H 
ATOM    143  H39 UNL A   1      29.221  35.321  54.268  1.00  0.00    +0.000 H 
ENDBRANCH   24   25
ENDBRANCH   28   27
ENDBRANCH   29   28
ENDBRANCH   30   29
ENDBRANCH   32   30
ENDBRANCH   33   32
ENDBRANCH   34   33
ENDBRANCH   35   34
ENDBRANCH   36   35
ENDBRANCH   37   36
ENDBRANCH   38   37
ENDBRANCH   39   38
ENDBRANCH   40   39
ENDBRANCH   42   40
ENDBRANCH   46   45
BRANCH   50   51
ATOM     51  C45 UNL A   1      21.565  34.357  46.563  1.00  0.00    +0.000 C 
ATOM     52  C46 UNL A   1      22.335  33.372  47.203  1.00  0.00    +0.000 C 
ATOM     53  F1  UNL A   1      22.866  33.609  48.412  1.00  0.00    +0.000 F 
ATOM     54  C47 UNL A   1      22.618  32.161  46.578  1.00  0.00    +0.000 C 
ATOM     55  F2  UNL A   1      23.416  31.268  47.180  1.00  0.00    +0.000 F 
ATOM     56  C48 UNL A   1      22.098  31.889  45.322  1.00  0.00    +0.000 C 
ATOM     57  F3  UNL A   1      22.368  30.722  44.721  1.00  0.00    +0.000 F 
ATOM     58  C49 UNL A   1      21.305  32.832  44.685  1.00  0.00    +0.000 C 
ATOM     59  F4  UNL A   1      20.793  32.567  43.475  1.00  0.00    +0.000 F 
ATOM     60  C50 UNL A   1      21.052  34.061  45.292  1.00  0.00    +0.000 C 
ATOM     61  F5  UNL A   1      20.312  34.964  44.633  1.00  0.00    +0.000 F 
ENDBRANCH   50   51
BRANCH   67   68
ATOM     68  C56 UNL A   1      16.418  37.738  50.309  1.00  0.00    +0.000 C 
ATOM     69  C57 UNL A   1      16.233  37.588  51.690  1.00  0.00    +0.000 C 
ATOM     70  F6  UNL A   1      17.280  37.658  52.524  1.00  0.00    +0.000 F 
ATOM     71  C58 UNL A   1      14.969  37.339  52.215  1.00  0.00    +0.000 C 
ATOM     72  F7  UNL A   1      14.817  37.160  53.535  1.00  0.00    +0.000 F 
ATOM     73  C59 UNL A   1      13.867  37.271  51.375  1.00  0.00    +0.000 C 
ATOM     74  F8  UNL A   1      12.647  37.048  51.886  1.00  0.00    +0.000 F 
ATOM     75  C60 UNL A   1      14.026  37.430  50.007  1.00  0.00    +0.000 C 
ATOM     76  F9  UNL A   1      12.960  37.386  49.197  1.00  0.00    +0.000 F 
ATOM     77  C61 UNL A   1      15.292  37.646  49.475  1.00  0.00    +0.000 C 
ATOM     78  F10 UNL A   1      15.420  37.796  48.149  1.00  0.00    +0.000 F 
ENDBRANCH   67   68
BRANCH   82   83
ATOM     83  C65 UNL A   1      20.242  43.576  50.374  1.00  0.00    +0.000 C 
ATOM     84  C66 UNL A   1      19.770  44.615  49.559  1.00  0.00    +0.000 C 
ATOM     85  F11 UNL A   1      19.519  44.387  48.262  1.00  0.00    +0.000 F 
ATOM     86  C67 UNL A   1      19.593  45.903  50.061  1.00  0.00    +0.000 C 
ATOM     87  F12 UNL A   1      19.187  46.887  49.248  1.00  0.00    +0.000 F 
ATOM     88  C68 UNL A   1      19.852  46.172  51.397  1.00  0.00    +0.000 C 
ATOM     89  F13 UNL A   1      19.681  47.409  51.880  1.00  0.00    +0.000 F 
ATOM     90  C69 UNL A   1      20.298  45.155  52.229  1.00  0.00    +0.000 C 
ATOM     91  F14 UNL A   1      20.535  45.406  53.523  1.00  0.00    +0.000 F 
ATOM     92  C70 UNL A   1      20.502  43.873  51.721  1.00  0.00    +0.000 C 
ATOM     93  F15 UNL A   1      20.945  42.913  52.546  1.00  0.00    +0.000 F 
ENDBRANCH   82   83
TORSDOF 30
ENDMDL
