MODEL 1
REMARK VINA RESULT:      -8.8      0.000      0.000
ROOT
ATOM    129  H31 UNL A   1      13.606  46.883   1.822  1.00  0.00    +0.000 H 
ATOM    130  H32 UNL A   1      15.361  47.042  -0.035  1.00  0.00    +0.000 H 
ATOM    131  H33 UNL A   1      17.110  56.650   2.332  1.00  0.00    +0.000 H 
ATOM    132  H34 UNL A   1      15.710  56.380   4.460  1.00  0.00    +0.000 H 
ATOM     28  C21 UNL A   1      14.436  53.842   4.674  1.00  0.00    +0.000 C 
ATOM     29  C22 UNL A   1      15.422  54.289   3.633  1.00  0.00    +0.000 C 
ATOM     30  N5  UNL A   1      15.906  53.625   2.613  1.00  0.00    +0.000 N 
ATOM     31  C23 UNL A   1      16.730  54.517   1.939  1.00  0.00    +0.000 C 
ATOM     32  C24 UNL A   1      17.498  54.295   0.845  1.00  0.00    +0.000 C 
ATOM     44  C31 UNL A   1      17.605  53.026   0.174  1.00  0.00    +0.000 C 
ATOM     45  C32 UNL A   1      18.433  52.674  -0.879  1.00  0.00    +0.000 C 
ATOM     46  C33 UNL A   1      18.152  51.350  -1.232  1.00  0.00    +0.000 C 
ATOM     47  C34 UNL A   1      17.181  50.862  -0.372  1.00  0.00    +0.000 C 
ATOM     48  N6  UNL A   1      16.858  51.900   0.488  1.00  0.00    +0.000 N 
ATOM     49  C35 UNL A   1      16.592  49.548  -0.335  1.00  0.00    +0.000 C 
ATOM     61  C42 UNL A   1      15.672  49.135   0.572  1.00  0.00    +0.000 C 
ATOM     62  N7  UNL A   1      15.096  49.846   1.615  1.00  0.00    +0.000 N 
ATOM     63  C43 UNL A   1      14.258  49.022   2.194  1.00  0.00    +0.000 C 
ATOM     64  C44 UNL A   1      13.371  49.257   3.384  1.00  0.00    +0.000 C 
ATOM     76  C51 UNL A   1      13.433  50.435   4.033  1.00  0.00    +0.000 C 
ATOM     77  C52 UNL A   1      12.644  50.794   5.207  1.00  0.00    +0.000 C 
ATOM     78  C53 UNL A   1      12.924  52.061   5.551  1.00  0.00    +0.000 C 
ATOM     79  C54 UNL A   1      13.935  52.593   4.636  1.00  0.00    +0.000 C 
ATOM     80  N8  UNL A   1      14.192  51.551   3.780  1.00  0.00    +0.000 N 
ATOM     81  C55 UNL A   1      14.196  47.692   1.572  1.00  0.00    +0.000 C 
ATOM     82  C56 UNL A   1      15.100  47.805   0.608  1.00  0.00    +0.000 C 
ATOM     83  C57 UNL A   1      16.648  55.780   2.642  1.00  0.00    +0.000 C 
ATOM     84  C58 UNL A   1      15.903  55.676   3.732  1.00  0.00    +0.000 C 
ATOM    123  H25 UNL A   1      19.135  53.284  -1.326  1.00  0.00    +0.000 H 
ATOM    124  H26 UNL A   1      18.593  50.825  -2.003  1.00  0.00    +0.000 H 
ATOM    125  H27 UNL A   1      16.196  51.846   1.215  1.00  0.00    +0.000 H 
ATOM    126  H28 UNL A   1      11.978  50.175   5.694  1.00  0.00    +0.000 H 
ATOM    127  H29 UNL A   1      12.495  52.578   6.335  1.00  0.00    +0.000 H 
ATOM    128  H30 UNL A   1      14.856  51.599   3.055  1.00  0.00    +0.000 H 
ENDROOT
BRANCH   28   27
ATOM    122  H24 UNL A   1      15.615  54.659   6.975  1.00  0.00    +0.000 H 
ATOM    133  H35 UNL A   1      12.141  55.224   4.661  1.00  0.00    +0.000 H 
ATOM    134  H36 UNL A   1      11.305  56.793   6.309  1.00  0.00    +0.000 H 
ATOM     85  C59 UNL A   1      12.689  55.416   5.513  1.00  0.00    +0.000 C 
ATOM     86  C60 UNL A   1      12.190  56.288   6.476  1.00  0.00    +0.000 C 
ATOM     24  C17 UNL A   1      12.890  56.480   7.672  1.00  0.00    +0.000 C 
ATOM     25  C18 UNL A   1      14.148  55.898   7.849  1.00  0.00    +0.000 C 
ATOM     26  C19 UNL A   1      14.677  55.071   6.856  1.00  0.00    +0.000 C 
ATOM     27  C20 UNL A   1      13.935  54.796   5.695  1.00  0.00    +0.000 C 
ATOM    121  H23 UNL A   1      14.686  56.079   8.711  1.00  0.00    +0.000 H 
BRANCH   24   22
ATOM     22  C16 UNL A   1      12.332  57.315   8.758  1.00  0.00    +0.000 C 
ATOM     23  O3  UNL A   1      12.490  58.532   8.730  1.00  0.00    +0.000 O 
BRANCH   22   21
ATOM     21  N4  UNL A   1      11.654  56.733   9.799  1.00  0.00    +0.000 N 
ATOM    120  H22 UNL A   1      11.327  57.356  10.488  1.00  0.00    +0.000 H 
BRANCH   21   20
ATOM     20  C15 UNL A   1      11.347  55.330  10.036  1.00  0.00    +0.000 C 
ATOM    118  H20 UNL A   1      10.311  55.242  10.286  1.00  0.00    +0.000 H 
ATOM    119  H21 UNL A   1      11.579  54.789   9.143  1.00  0.00    +0.000 H 
BRANCH   20   19
ATOM     19  C14 UNL A   1      12.180  54.742  11.172  1.00  0.00    +0.000 C 
ATOM    116  H18 UNL A   1      12.551  55.552  11.765  1.00  0.00    +0.000 H 
ATOM    117  H19 UNL A   1      11.531  54.086  11.713  1.00  0.00    +0.000 H 
BRANCH   19   18
ATOM     18  C13 UNL A   1      13.373  53.896  10.721  1.00  0.00    +0.000 C 
ATOM    115  H17 UNL A   1      13.697  53.356  11.587  1.00  0.00    +0.000 H 
ATOM    114  H16 UNL A   1      14.116  54.557  10.326  1.00  0.00    +0.000 H 
BRANCH   18   17
ATOM     17  C12 UNL A   1      13.063  52.840   9.653  1.00  0.00    +0.000 C 
ATOM    113  H15 UNL A   1      13.369  53.262   8.719  1.00  0.00    +0.000 H 
ATOM    112  H14 UNL A   1      12.016  52.620   9.698  1.00  0.00    +0.000 H 
BRANCH   17   16
ATOM    110  H12 UNL A   1      13.126  50.716   9.814  1.00  0.00    +0.000 H 
ATOM    111  H13 UNL A   1      14.504  51.455   8.968  1.00  0.00    +0.000 H 
ATOM     16  C11 UNL A   1      13.833  51.520   9.798  1.00  0.00    +0.000 C 
BRANCH   16   15
ATOM    108  H10 UNL A   1      14.406  52.251  11.717  1.00  0.00    +0.000 H 
ATOM    109  H11 UNL A   1      14.497  50.501  11.540  1.00  0.00    +0.000 H 
ATOM     15  C10 UNL A   1      14.680  51.445  11.069  1.00  0.00    +0.000 C 
BRANCH   15   14
ATOM    107  H9  UNL A   1      16.441  52.449  10.617  1.00  0.00    +0.000 H 
ATOM     14  N3  UNL A   1      16.095  51.540  10.768  1.00  0.00    +0.000 N 
BRANCH   14   12
ATOM     12  C9  UNL A   1      17.010  50.527  10.665  1.00  0.00    +0.000 C 
ATOM     13  O2  UNL A   1      17.684  50.245  11.657  1.00  0.00    +0.000 O 
BRANCH   12   11
ATOM    105  H7  UNL A   1      16.681  50.344   8.562  1.00  0.00    +0.000 H 
ATOM    106  H8  UNL A   1      18.263  49.792   9.113  1.00  0.00    +0.000 H 
ATOM     11  C8  UNL A   1      17.214  49.813   9.323  1.00  0.00    +0.000 C 
BRANCH   11   10
ATOM     10  N2  UNL A   1      16.734  48.443   9.365  1.00  0.00    +0.000 N 
ATOM    104  H6  UNL A   1      17.407  47.728   9.298  1.00  0.00    +0.000 H 
BRANCH   10    9
ATOM      7  C6  UNL A   1      13.555  47.584  10.543  1.00  0.00    +0.000 C 
ATOM      8  N1  UNL A   1      14.899  47.886  10.669  1.00  0.00    +0.000 N 
ATOM      9  C7  UNL A   1      15.444  48.064   9.487  1.00  0.00    +0.000 C 
ATOM     87  S1  UNL A   1      14.361  47.820   8.165  1.00  0.00    +0.000 S 
ATOM     88  C61 UNL A   1      13.052  47.624   9.251  1.00  0.00    +0.000 C 
BRANCH    7    6
ATOM     97  C69 UNL A   1      12.394  45.989  12.041  1.00  0.00    +0.000 C 
ATOM     98  C70 UNL A   1      11.685  45.718  13.218  1.00  0.00    +0.000 C 
ATOM      3  C2  UNL A   1      11.301  46.766  14.059  1.00  0.00    +0.000 C 
ATOM      4  C3  UNL A   1      11.582  48.082  13.699  1.00  0.00    +0.000 C 
ATOM      5  C4  UNL A   1      12.299  48.353  12.534  1.00  0.00    +0.000 C 
ATOM    102  H4  UNL A   1      11.259  48.860  14.296  1.00  0.00    +0.000 H 
ATOM      6  C5  UNL A   1      12.730  47.305  11.709  1.00  0.00    +0.000 C 
ATOM    103  H5  UNL A   1      12.513  49.329  12.277  1.00  0.00    +0.000 H 
ATOM    142  H44 UNL A   1      12.669  45.214  11.417  1.00  0.00    +0.000 H 
ATOM    143  H45 UNL A   1      11.445  44.745  13.465  1.00  0.00    +0.000 H 
BRANCH    3    2
ATOM      2  O1  UNL A   1      10.603  46.611  15.224  1.00  0.00    +0.000 O 
BRANCH    2    1
ATOM      1  C1  UNL A   1      10.205  45.272  15.504  1.00  0.00    +0.000 C 
ATOM     99  H1  UNL A   1      10.666  44.945  16.412  1.00  0.00    +0.000 H 
ATOM    100  H2  UNL A   1      10.511  44.634  14.700  1.00  0.00    +0.000 H 
ATOM    101  H3  UNL A   1       9.142  45.230  15.606  1.00  0.00    +0.000 H 
ENDBRANCH    2    1
ENDBRANCH    3    2
ENDBRANCH    7    6
BRANCH   88   89
ATOM    135  H37 UNL A   1      11.596  49.532   7.991  1.00  0.00    +0.000 H 
ATOM    136  H38 UNL A   1       9.339  49.345   7.133  1.00  0.00    +0.000 H 
ATOM    140  H42 UNL A   1       9.103  45.397   8.537  1.00  0.00    +0.000 H 
ATOM    141  H43 UNL A   1      11.353  45.586   9.415  1.00  0.00    +0.000 H 
ATOM     89  C62 UNL A   1      11.675  47.566   8.757  1.00  0.00    +0.000 C 
ATOM     90  C63 UNL A   1      11.075  48.649   8.105  1.00  0.00    +0.000 C 
ATOM     91  C64 UNL A   1       9.772  48.538   7.608  1.00  0.00    +0.000 C 
ATOM     92  C65 UNL A   1       9.052  47.350   7.745  1.00  0.00    +0.000 C 
ATOM     95  C67 UNL A   1       9.632  46.275   8.413  1.00  0.00    +0.000 C 
ATOM     96  C68 UNL A   1      10.932  46.385   8.917  1.00  0.00    +0.000 C 
BRANCH   92   93
ATOM     93  O4  UNL A   1       7.801  47.364   7.193  1.00  0.00    +0.000 O 
BRANCH   93   94
ATOM    137  H39 UNL A   1       7.611  45.428   7.828  1.00  0.00    +0.000 H 
ATOM    138  H40 UNL A   1       6.715  45.830   6.383  1.00  0.00    +0.000 H 
ATOM    139  H41 UNL A   1       6.161  46.395   7.941  1.00  0.00    +0.000 H 
ATOM     94  C66 UNL A   1       7.024  46.181   7.345  1.00  0.00    +0.000 C 
ENDBRANCH   93   94
ENDBRANCH   92   93
ENDBRANCH   88   89
ENDBRANCH   10    9
ENDBRANCH   11   10
ENDBRANCH   12   11
ENDBRANCH   14   12
ENDBRANCH   15   14
ENDBRANCH   16   15
ENDBRANCH   17   16
ENDBRANCH   18   17
ENDBRANCH   19   18
ENDBRANCH   20   19
ENDBRANCH   21   20
ENDBRANCH   22   21
ENDBRANCH   24   22
ENDBRANCH   28   27
BRANCH   32   33
ATOM     33  C25 UNL A   1      18.282  55.454   0.303  1.00  0.00    +0.000 C 
ATOM     34  C26 UNL A   1      19.475  55.884   0.903  1.00  0.00    +0.000 C 
ATOM     35  F1  UNL A   1      19.927  55.282   2.013  1.00  0.00    +0.000 F 
ATOM     36  C27 UNL A   1      20.187  56.963   0.386  1.00  0.00    +0.000 C 
ATOM     37  F2  UNL A   1      21.297  57.389   1.006  1.00  0.00    +0.000 F 
ATOM     38  C28 UNL A   1      19.740  57.610  -0.756  1.00  0.00    +0.000 C 
ATOM     39  F3  UNL A   1      20.428  58.648  -1.252  1.00  0.00    +0.000 F 
ATOM     40  C29 UNL A   1      18.577  57.187  -1.379  1.00  0.00    +0.000 C 
ATOM     41  F4  UNL A   1      18.149  57.804  -2.490  1.00  0.00    +0.000 F 
ATOM     42  C30 UNL A   1      17.848  56.125  -0.850  1.00  0.00    +0.000 C 
ATOM     43  F5  UNL A   1      16.715  55.751  -1.464  1.00  0.00    +0.000 F 
ENDBRANCH   32   33
BRANCH   49   50
ATOM     50  C36 UNL A   1      17.036  48.551  -1.362  1.00  0.00    +0.000 C 
ATOM     51  C37 UNL A   1      18.112  47.684  -1.122  1.00  0.00    +0.000 C 
ATOM     52  F6  UNL A   1      18.804  47.770   0.025  1.00  0.00    +0.000 F 
ATOM     53  C38 UNL A   1      18.504  46.749  -2.076  1.00  0.00    +0.000 C 
ATOM     54  F7  UNL A   1      19.560  45.958  -1.841  1.00  0.00    +0.000 F 
ATOM     55  C39 UNL A   1      17.810  46.641  -3.272  1.00  0.00    +0.000 C 
ATOM     56  F8  UNL A   1      18.184  45.736  -4.186  1.00  0.00    +0.000 F 
ATOM     57  C40 UNL A   1      16.734  47.479  -3.524  1.00  0.00    +0.000 C 
ATOM     58  F9  UNL A   1      16.057  47.370  -4.675  1.00  0.00    +0.000 F 
ATOM     59  C41 UNL A   1      16.356  48.433  -2.584  1.00  0.00    +0.000 C 
ATOM     60  F10 UNL A   1      15.318  49.236  -2.859  1.00  0.00    +0.000 F 
ENDBRANCH   49   50
BRANCH   64   65
ATOM     65  C45 UNL A   1      12.444  48.205   3.869  1.00  0.00    +0.000 C 
ATOM     66  C46 UNL A   1      12.865  47.250   4.804  1.00  0.00    +0.000 C 
ATOM     67  F11 UNL A   1      14.135  47.251   5.234  1.00  0.00    +0.000 F 
ATOM     68  C47 UNL A   1      11.991  46.275   5.279  1.00  0.00    +0.000 C 
ATOM     69  F12 UNL A   1      12.426  45.356   6.151  1.00  0.00    +0.000 F 
ATOM     70  C48 UNL A   1      10.673  46.252   4.847  1.00  0.00    +0.000 C 
ATOM     71  F13 UNL A   1       9.830  45.322   5.313  1.00  0.00    +0.000 F 
ATOM     72  C49 UNL A   1      10.232  47.193   3.927  1.00  0.00    +0.000 C 
ATOM     73  F14 UNL A   1       8.957  47.181   3.515  1.00  0.00    +0.000 F 
ATOM     74  C50 UNL A   1      11.112  48.153   3.432  1.00  0.00    +0.000 C 
ATOM     75  F15 UNL A   1      10.661  49.048   2.541  1.00  0.00    +0.000 F 
ENDBRANCH   64   65
TORSDOF 23
ENDMDL
MODEL 2
REMARK VINA RESULT:      -8.7     37.171     43.031
ROOT
ATOM    129  H31 UNL A   1      36.729  34.839  33.842  1.00  0.00    +0.000 H 
ATOM    130  H32 UNL A   1      38.182  35.220  35.915  1.00  0.00    +0.000 H 
ATOM    131  H33 UNL A   1      43.536  26.990  33.770  1.00  0.00    +0.000 H 
ATOM    132  H34 UNL A   1      42.405  26.853  31.476  1.00  0.00    +0.000 H 
ATOM     28  C21 UNL A   1      40.342  28.781  31.103  1.00  0.00    +0.000 C 
ATOM     29  C22 UNL A   1      41.287  28.661  32.264  1.00  0.00    +0.000 C 
ATOM     30  N5  UNL A   1      41.371  29.401  33.341  1.00  0.00    +0.000 N 
ATOM     31  C23 UNL A   1      42.371  28.827  34.115  1.00  0.00    +0.000 C 
ATOM     32  C24 UNL A   1      42.868  29.252  35.302  1.00  0.00    +0.000 C 
ATOM     44  C31 UNL A   1      42.430  30.441  35.986  1.00  0.00    +0.000 C 
ATOM     45  C32 UNL A   1      42.940  31.010  37.141  1.00  0.00    +0.000 C 
ATOM     46  C33 UNL A   1      42.162  32.129  37.458  1.00  0.00    +0.000 C 
ATOM     47  C34 UNL A   1      41.195  32.282  36.478  1.00  0.00    +0.000 C 
ATOM     48  N6  UNL A   1      41.373  31.243  35.579  1.00  0.00    +0.000 N 
ATOM     49  C35 UNL A   1      40.183  33.302  36.367  1.00  0.00    +0.000 C 
ATOM     61  C42 UNL A   1      39.294  33.406  35.348  1.00  0.00    +0.000 C 
ATOM     62  N7  UNL A   1      39.144  32.591  34.235  1.00  0.00    +0.000 N 
ATOM     63  C43 UNL A   1      38.144  33.092  33.553  1.00  0.00    +0.000 C 
ATOM     64  C44 UNL A   1      37.554  32.618  32.255  1.00  0.00    +0.000 C 
ATOM     76  C51 UNL A   1      38.113  31.574  31.616  1.00  0.00    +0.000 C 
ATOM     77  C52 UNL A   1      37.657  31.017  30.347  1.00  0.00    +0.000 C 
ATOM     78  C53 UNL A   1      38.412  29.952  30.039  1.00  0.00    +0.000 C 
ATOM     79  C54 UNL A   1      39.426  29.768  31.078  1.00  0.00    +0.000 C 
ATOM     80  N8  UNL A   1      39.185  30.789  31.964  1.00  0.00    +0.000 N 
ATOM     81  C55 UNL A   1      37.535  34.280  34.166  1.00  0.00    +0.000 C 
ATOM     82  C56 UNL A   1      38.293  34.447  35.241  1.00  0.00    +0.000 C 
ATOM     83  C57 UNL A   1      42.834  27.654  33.404  1.00  0.00    +0.000 C 
ATOM     84  C58 UNL A   1      42.241  27.543  32.225  1.00  0.00    +0.000 C 
ATOM    123  H25 UNL A   1      43.754  30.667  37.675  1.00  0.00    +0.000 H 
ATOM    124  H26 UNL A   1      42.288  32.736  38.282  1.00  0.00    +0.000 H 
ATOM    125  H27 UNL A   1      40.831  31.094  34.772  1.00  0.00    +0.000 H 
ATOM    126  H28 UNL A   1      36.878  31.384  29.777  1.00  0.00    +0.000 H 
ATOM    127  H29 UNL A   1      38.296  29.356  29.203  1.00  0.00    +0.000 H 
ATOM    128  H30 UNL A   1      39.728  30.942  32.771  1.00  0.00    +0.000 H 
ENDROOT
BRANCH   28   27
ATOM    122  H24 UNL A   1      42.097  28.464  29.060  1.00  0.00    +0.000 H 
ATOM    133  H35 UNL A   1      38.620  26.764  30.724  1.00  0.00    +0.000 H 
ATOM    134  H36 UNL A   1      38.610  25.087  28.974  1.00  0.00    +0.000 H 
ATOM     85  C59 UNL A   1      39.341  26.786  29.986  1.00  0.00    +0.000 C 
ATOM     86  C60 UNL A   1      39.311  25.845  28.961  1.00  0.00    +0.000 C 
ATOM     24  C17 UNL A   1      40.232  25.928  27.911  1.00  0.00    +0.000 C 
ATOM     25  C18 UNL A   1      41.260  26.874  27.955  1.00  0.00    +0.000 C 
ATOM     26  C19 UNL A   1      41.326  27.780  29.015  1.00  0.00    +0.000 C 
ATOM     27  C20 UNL A   1      40.345  27.765  30.021  1.00  0.00    +0.000 C 
ATOM    121  H23 UNL A   1      41.968  26.904  27.205  1.00  0.00    +0.000 H 
BRANCH   24   22
ATOM     22  C16 UNL A   1      40.158  25.010  26.755  1.00  0.00    +0.000 C 
ATOM     23  O3  UNL A   1      39.097  24.878  26.151  1.00  0.00    +0.000 O 
BRANCH   22   21
ATOM     21  N4  UNL A   1      41.264  24.297  26.365  1.00  0.00    +0.000 N 
ATOM    120  H22 UNL A   1      41.972  24.825  25.929  1.00  0.00    +0.000 H 
BRANCH   21   20
ATOM     20  C15 UNL A   1      41.545  22.876  26.501  1.00  0.00    +0.000 C 
ATOM    118  H20 UNL A   1      41.793  22.481  25.538  1.00  0.00    +0.000 H 
ATOM    119  H21 UNL A   1      42.358  22.767  27.187  1.00  0.00    +0.000 H 
BRANCH   20   19
ATOM     19  C14 UNL A   1      40.353  22.103  27.059  1.00  0.00    +0.000 C 
ATOM    116  H18 UNL A   1      40.691  21.533  27.898  1.00  0.00    +0.000 H 
ATOM    117  H19 UNL A   1      39.614  22.832  27.315  1.00  0.00    +0.000 H 
BRANCH   19   18
ATOM     18  C13 UNL A   1      39.690  21.144  26.067  1.00  0.00    +0.000 C 
ATOM    115  H17 UNL A   1      39.536  20.228  26.599  1.00  0.00    +0.000 H 
ATOM    114  H16 UNL A   1      40.336  21.044  25.220  1.00  0.00    +0.000 H 
BRANCH   18   17
ATOM     17  C12 UNL A   1      38.308  21.577  25.559  1.00  0.00    +0.000 C 
ATOM    113  H15 UNL A   1      38.484  22.148  24.671  1.00  0.00    +0.000 H 
ATOM    112  H14 UNL A   1      37.828  22.134  26.336  1.00  0.00    +0.000 H 
BRANCH   17   16
ATOM    110  H12 UNL A   1      37.819  19.908  24.327  1.00  0.00    +0.000 H 
ATOM    111  H13 UNL A   1      37.252  19.803  26.009  1.00  0.00    +0.000 H 
ATOM     16  C11 UNL A   1      37.375  20.429  25.151  1.00  0.00    +0.000 C 
BRANCH   16   15
ATOM    108  H10 UNL A   1      36.064  21.471  23.831  1.00  0.00    +0.000 H 
ATOM    109  H11 UNL A   1      35.369  20.034  24.574  1.00  0.00    +0.000 H 
ATOM     15  C10 UNL A   1      35.981  20.898  24.730  1.00  0.00    +0.000 C 
BRANCH   15   14
ATOM    107  H9  UNL A   1      35.872  22.514  26.030  1.00  0.00    +0.000 H 
ATOM     14  N3  UNL A   1      35.366  21.715  25.758  1.00  0.00    +0.000 N 
BRANCH   14   12
ATOM     12  C9  UNL A   1      34.173  21.517  26.398  1.00  0.00    +0.000 C 
ATOM     13  O2  UNL A   1      34.178  21.414  27.626  1.00  0.00    +0.000 O 
BRANCH   12   11
ATOM    105  H7  UNL A   1      32.838  20.386  25.173  1.00  0.00    +0.000 H 
ATOM    106  H8  UNL A   1      32.054  21.554  26.237  1.00  0.00    +0.000 H 
ATOM     11  C8  UNL A   1      32.881  21.373  25.584  1.00  0.00    +0.000 C 
BRANCH   11   10
ATOM     10  N2  UNL A   1      32.820  22.337  24.499  1.00  0.00    +0.000 N 
ATOM    104  H6  UNL A   1      33.229  22.075  23.642  1.00  0.00    +0.000 H 
BRANCH   10    9
ATOM      7  C6  UNL A   1      32.089  25.704  25.097  1.00  0.00    +0.000 C 
ATOM      8  N1  UNL A   1      32.805  24.530  25.249  1.00  0.00    +0.000 N 
ATOM      9  C7  UNL A   1      32.250  23.559  24.561  1.00  0.00    +0.000 C 
ATOM     87  S1  UNL A   1      30.801  24.012  23.739  1.00  0.00    +0.000 S 
ATOM     88  C61 UNL A   1      31.027  25.644  24.206  1.00  0.00    +0.000 C 
BRANCH    7    6
ATOM     97  C69 UNL A   1      31.607  27.532  26.698  1.00  0.00    +0.000 C 
ATOM     98  C70 UNL A   1      32.023  28.648  27.435  1.00  0.00    +0.000 C 
ATOM      3  C2  UNL A   1      33.310  29.163  27.256  1.00  0.00    +0.000 C 
ATOM      4  C3  UNL A   1      34.158  28.594  26.308  1.00  0.00    +0.000 C 
ATOM      5  C4  UNL A   1      33.749  27.475  25.581  1.00  0.00    +0.000 C 
ATOM    102  H4  UNL A   1      35.092  29.001  26.141  1.00  0.00    +0.000 H 
ATOM      6  C5  UNL A   1      32.478  26.923  25.789  1.00  0.00    +0.000 C 
ATOM    103  H5  UNL A   1      34.386  27.052  24.888  1.00  0.00    +0.000 H 
ATOM    142  H44 UNL A   1      30.653  27.159  26.825  1.00  0.00    +0.000 H 
ATOM    143  H45 UNL A   1      31.381  29.091  28.110  1.00  0.00    +0.000 H 
BRANCH    3    2
ATOM      2  O1  UNL A   1      33.812  30.247  27.919  1.00  0.00    +0.000 O 
BRANCH    2    1
ATOM      1  C1  UNL A   1      33.354  31.505  27.430  1.00  0.00    +0.000 C 
ATOM     99  H1  UNL A   1      33.122  32.145  28.256  1.00  0.00    +0.000 H 
ATOM    100  H2  UNL A   1      32.474  31.358  26.837  1.00  0.00    +0.000 H 
ATOM    101  H3  UNL A   1      34.117  31.954  26.831  1.00  0.00    +0.000 H 
ENDBRANCH    2    1
ENDBRANCH    3    2
ENDBRANCH    7    6
BRANCH   88   89
ATOM    135  H37 UNL A   1      28.349  26.010  24.417  1.00  0.00    +0.000 H 
ATOM    136  H38 UNL A   1      27.030  27.833  23.518  1.00  0.00    +0.000 H 
ATOM    140  H42 UNL A   1      30.471  29.513  21.802  1.00  0.00    +0.000 H 
ATOM    141  H43 UNL A   1      31.792  27.682  22.681  1.00  0.00    +0.000 H 
ATOM     89  C62 UNL A   1      30.187  26.704  23.644  1.00  0.00    +0.000 C 
ATOM     90  C63 UNL A   1      28.808  26.754  23.868  1.00  0.00    +0.000 C 
ATOM     91  C64 UNL A   1      28.047  27.809  23.351  1.00  0.00    +0.000 C 
ATOM     92  C65 UNL A   1      28.649  28.829  22.611  1.00  0.00    +0.000 C 
ATOM     95  C67 UNL A   1      30.018  28.774  22.363  1.00  0.00    +0.000 C 
ATOM     96  C68 UNL A   1      30.778  27.718  22.873  1.00  0.00    +0.000 C 
BRANCH   92   93
ATOM     93  O4  UNL A   1      27.800  29.813  22.185  1.00  0.00    +0.000 O 
BRANCH   93   94
ATOM    137  H39 UNL A   1      28.616  31.685  22.050  1.00  0.00    +0.000 H 
ATOM    138  H40 UNL A   1      27.679  31.178  20.665  1.00  0.00    +0.000 H 
ATOM    139  H41 UNL A   1      29.268  30.505  20.939  1.00  0.00    +0.000 H 
ATOM     94  C66 UNL A   1      28.376  30.860  21.412  1.00  0.00    +0.000 C 
ENDBRANCH   93   94
ENDBRANCH   92   93
ENDBRANCH   88   89
ENDBRANCH   10    9
ENDBRANCH   11   10
ENDBRANCH   12   11
ENDBRANCH   14   12
ENDBRANCH   15   14
ENDBRANCH   16   15
ENDBRANCH   17   16
ENDBRANCH   18   17
ENDBRANCH   19   18
ENDBRANCH   20   19
ENDBRANCH   21   20
ENDBRANCH   22   21
ENDBRANCH   24   22
ENDBRANCH   28   27
BRANCH   32   33
ATOM     33  C25 UNL A   1      43.942  28.421  35.941  1.00  0.00    +0.000 C 
ATOM     34  C26 UNL A   1      43.639  27.360  36.806  1.00  0.00    +0.000 C 
ATOM     35  F1  UNL A   1      42.363  27.085  37.115  1.00  0.00    +0.000 F 
ATOM     36  C27 UNL A   1      44.649  26.601  37.391  1.00  0.00    +0.000 C 
ATOM     37  F2  UNL A   1      44.337  25.625  38.256  1.00  0.00    +0.000 F 
ATOM     38  C28 UNL A   1      45.978  26.866  37.097  1.00  0.00    +0.000 C 
ATOM     39  F3  UNL A   1      46.950  26.134  37.659  1.00  0.00    +0.000 F 
ATOM     40  C29 UNL A   1      46.301  27.895  36.225  1.00  0.00    +0.000 C 
ATOM     41  F4  UNL A   1      47.584  28.146  35.930  1.00  0.00    +0.000 F 
ATOM     42  C30 UNL A   1      45.293  28.673  35.660  1.00  0.00    +0.000 C 
ATOM     43  F5  UNL A   1      45.638  29.673  34.835  1.00  0.00    +0.000 F 
ENDBRANCH   32   33
BRANCH   49   50
ATOM     50  C36 UNL A   1      40.110  34.338  37.448  1.00  0.00    +0.000 C 
ATOM     51  C37 UNL A   1      40.898  35.498  37.402  1.00  0.00    +0.000 C 
ATOM     52  F6  UNL A   1      41.779  35.676  36.405  1.00  0.00    +0.000 F 
ATOM     53  C38 UNL A   1      40.808  36.463  38.401  1.00  0.00    +0.000 C 
ATOM     54  F7  UNL A   1      41.599  37.544  38.357  1.00  0.00    +0.000 F 
ATOM     55  C39 UNL A   1      39.910  36.303  39.446  1.00  0.00    +0.000 C 
ATOM     56  F8  UNL A   1      39.820  37.236  40.403  1.00  0.00    +0.000 F 
ATOM     57  C40 UNL A   1      39.112  35.170  39.503  1.00  0.00    +0.000 C 
ATOM     58  F9  UNL A   1      38.237  35.019  40.507  1.00  0.00    +0.000 F 
ATOM     59  C41 UNL A   1      39.217  34.191  38.520  1.00  0.00    +0.000 C 
ATOM     60  F10 UNL A   1      38.439  33.102  38.607  1.00  0.00    +0.000 F 
ENDBRANCH   49   50
BRANCH   64   65
ATOM     65  C45 UNL A   1      36.379  33.296  31.654  1.00  0.00    +0.000 C 
ATOM     66  C46 UNL A   1      36.456  33.877  30.382  1.00  0.00    +0.000 C 
ATOM     67  F11 UNL A   1      37.618  33.868  29.713  1.00  0.00    +0.000 F 
ATOM     68  C47 UNL A   1      35.348  34.494  29.805  1.00  0.00    +0.000 C 
ATOM     69  F12 UNL A   1      35.456  35.069  28.600  1.00  0.00    +0.000 F 
ATOM     70  C48 UNL A   1      34.136  34.519  30.480  1.00  0.00    +0.000 C 
ATOM     71  F13 UNL A   1      33.068  35.102  29.920  1.00  0.00    +0.000 F 
ATOM     72  C49 UNL A   1      34.035  33.943  31.738  1.00  0.00    +0.000 C 
ATOM     73  F14 UNL A   1      32.863  33.954  32.388  1.00  0.00    +0.000 F 
ATOM     74  C50 UNL A   1      35.148  33.347  32.326  1.00  0.00    +0.000 C 
ATOM     75  F15 UNL A   1      35.024  32.800  33.544  1.00  0.00    +0.000 F 
ENDBRANCH   64   65
TORSDOF 23
ENDMDL
MODEL 3
REMARK VINA RESULT:      -8.5      0.803      2.068
ROOT
ATOM    129  H31 UNL A   1      13.496  47.020   1.739  1.00  0.00    +0.000 H 
ATOM    130  H32 UNL A   1      15.223  47.169  -0.146  1.00  0.00    +0.000 H 
ATOM    131  H33 UNL A   1      17.041  56.776   2.175  1.00  0.00    +0.000 H 
ATOM    132  H34 UNL A   1      15.674  56.514   4.325  1.00  0.00    +0.000 H 
ATOM     28  C21 UNL A   1      14.395  53.981   4.564  1.00  0.00    +0.000 C 
ATOM     29  C22 UNL A   1      15.366  54.423   3.507  1.00  0.00    +0.000 C 
ATOM     30  N5  UNL A   1      15.831  53.755   2.481  1.00  0.00    +0.000 N 
ATOM     31  C23 UNL A   1      16.648  54.643   1.793  1.00  0.00    +0.000 C 
ATOM     32  C24 UNL A   1      17.398  54.416   0.687  1.00  0.00    +0.000 C 
ATOM     44  C31 UNL A   1      17.490  53.145   0.017  1.00  0.00    +0.000 C 
ATOM     45  C32 UNL A   1      18.300  52.788  -1.049  1.00  0.00    +0.000 C 
ATOM     46  C33 UNL A   1      18.009  51.465  -1.395  1.00  0.00    +0.000 C 
ATOM     47  C34 UNL A   1      17.050  50.982  -0.518  1.00  0.00    +0.000 C 
ATOM     48  N6  UNL A   1      16.744  52.023   0.344  1.00  0.00    +0.000 N 
ATOM     49  C35 UNL A   1      16.457  49.670  -0.469  1.00  0.00    +0.000 C 
ATOM     61  C42 UNL A   1      15.550  49.263   0.452  1.00  0.00    +0.000 C 
ATOM     62  N7  UNL A   1      14.993  49.977   1.503  1.00  0.00    +0.000 N 
ATOM     63  C43 UNL A   1      14.161  49.157   2.097  1.00  0.00    +0.000 C 
ATOM     64  C44 UNL A   1      13.294  49.397   3.300  1.00  0.00    +0.000 C 
ATOM     76  C51 UNL A   1      13.370  50.576   3.945  1.00  0.00    +0.000 C 
ATOM     77  C52 UNL A   1      12.602  50.941   5.131  1.00  0.00    +0.000 C 
ATOM     78  C53 UNL A   1      12.891  52.207   5.468  1.00  0.00    +0.000 C 
ATOM     79  C54 UNL A   1      13.889  52.734   4.536  1.00  0.00    +0.000 C 
ATOM     80  N8  UNL A   1      14.129  51.689   3.678  1.00  0.00    +0.000 N 
ATOM     81  C55 UNL A   1      14.085  47.826   1.478  1.00  0.00    +0.000 C 
ATOM     82  C56 UNL A   1      14.974  47.934   0.500  1.00  0.00    +0.000 C 
ATOM     83  C57 UNL A   1      16.581  55.908   2.494  1.00  0.00    +0.000 C 
ATOM     84  C58 UNL A   1      15.853  55.808   3.596  1.00  0.00    +0.000 C 
ATOM    123  H25 UNL A   1      18.997  53.395  -1.508  1.00  0.00    +0.000 H 
ATOM    124  H26 UNL A   1      18.436  50.937  -2.172  1.00  0.00    +0.000 H 
ATOM    125  H27 UNL A   1      16.094  51.973   1.082  1.00  0.00    +0.000 H 
ATOM    126  H28 UNL A   1      11.941  50.325   5.630  1.00  0.00    +0.000 H 
ATOM    127  H29 UNL A   1      12.476  52.727   6.257  1.00  0.00    +0.000 H 
ATOM    128  H30 UNL A   1      14.782  51.734   2.943  1.00  0.00    +0.000 H 
ENDROOT
BRANCH   28   27
ATOM    122  H24 UNL A   1      15.605  54.784   6.854  1.00  0.00    +0.000 H 
ATOM    133  H35 UNL A   1      12.113  55.385   4.576  1.00  0.00    +0.000 H 
ATOM    134  H36 UNL A   1      11.309  56.960   6.233  1.00  0.00    +0.000 H 
ATOM     85  C59 UNL A   1      12.672  55.571   5.423  1.00  0.00    +0.000 C 
ATOM     86  C60 UNL A   1      12.191  56.447   6.391  1.00  0.00    +0.000 C 
ATOM     24  C17 UNL A   1      12.904  56.631   7.580  1.00  0.00    +0.000 C 
ATOM     25  C18 UNL A   1      14.159  56.037   7.744  1.00  0.00    +0.000 C 
ATOM     26  C19 UNL A   1      14.670  55.205   6.745  1.00  0.00    +0.000 C 
ATOM     27  C20 UNL A   1      13.913  54.938   5.591  1.00  0.00    +0.000 C 
ATOM    121  H23 UNL A   1      14.707  56.211   8.601  1.00  0.00    +0.000 H 
BRANCH   24   22
ATOM     22  C16 UNL A   1      12.366  57.470   8.672  1.00  0.00    +0.000 C 
ATOM     23  O3  UNL A   1      12.578  58.678   8.670  1.00  0.00    +0.000 O 
BRANCH   22   21
ATOM     21  N4  UNL A   1      11.645  56.899   9.691  1.00  0.00    +0.000 N 
ATOM    120  H22 UNL A   1      11.336  57.524  10.388  1.00  0.00    +0.000 H 
BRANCH   21   20
ATOM     20  C15 UNL A   1      11.268  55.509   9.894  1.00  0.00    +0.000 C 
ATOM    118  H20 UNL A   1      10.257  55.473  10.239  1.00  0.00    +0.000 H 
ATOM    119  H21 UNL A   1      11.380  54.999   8.960  1.00  0.00    +0.000 H 
BRANCH   20   19
ATOM     19  C14 UNL A   1      12.163  54.814  10.917  1.00  0.00    +0.000 C 
ATOM    116  H18 UNL A   1      12.649  55.568  11.500  1.00  0.00    +0.000 H 
ATOM    117  H19 UNL A   1      11.525  54.180  11.495  1.00  0.00    +0.000 H 
BRANCH   19   18
ATOM     18  C13 UNL A   1      13.242  53.909  10.316  1.00  0.00    +0.000 C 
ATOM    115  H17 UNL A   1      13.583  53.284  11.116  1.00  0.00    +0.000 H 
ATOM    114  H16 UNL A   1      14.007  54.534   9.905  1.00  0.00    +0.000 H 
BRANCH   18   17
ATOM     17  C12 UNL A   1      12.761  52.960   9.211  1.00  0.00    +0.000 C 
ATOM    113  H15 UNL A   1      12.887  53.490   8.289  1.00  0.00    +0.000 H 
ATOM    112  H14 UNL A   1      11.744  52.698   9.417  1.00  0.00    +0.000 H 
BRANCH   17   16
ATOM    110  H12 UNL A   1      13.068  50.892   9.622  1.00  0.00    +0.000 H 
ATOM    111  H13 UNL A   1      13.626  51.440   8.026  1.00  0.00    +0.000 H 
ATOM     16  C11 UNL A   1      13.567  51.661   9.070  1.00  0.00    +0.000 C 
BRANCH   16   15
ATOM    108  H10 UNL A   1      15.112  52.707  10.103  1.00  0.00    +0.000 H 
ATOM    109  H11 UNL A   1      15.186  50.953  10.249  1.00  0.00    +0.000 H 
ATOM     15  C10 UNL A   1      15.002  51.775   9.589  1.00  0.00    +0.000 C 
BRANCH   15   14
ATOM    107  H9  UNL A   1      15.893  52.431   7.831  1.00  0.00    +0.000 H 
ATOM     14  N3  UNL A   1      15.962  51.716   8.504  1.00  0.00    +0.000 N 
BRANCH   14   12
ATOM     12  C9  UNL A   1      16.951  50.793   8.297  1.00  0.00    +0.000 C 
ATOM     13  O2  UNL A   1      18.119  51.134   8.492  1.00  0.00    +0.000 O 
BRANCH   12   11
ATOM    105  H7  UNL A   1      15.724  49.461   7.164  1.00  0.00    +0.000 H 
ATOM    106  H8  UNL A   1      17.432  49.021   7.226  1.00  0.00    +0.000 H 
ATOM     11  C8  UNL A   1      16.597  49.393   7.781  1.00  0.00    +0.000 C 
BRANCH   11   10
ATOM     10  N2  UNL A   1      16.330  48.470   8.871  1.00  0.00    +0.000 N 
ATOM    104  H6  UNL A   1      17.108  48.102   9.349  1.00  0.00    +0.000 H 
BRANCH   10    9
ATOM      7  C6  UNL A   1      13.458  47.735  10.726  1.00  0.00    +0.000 C 
ATOM      8  N1  UNL A   1      14.780  48.108  10.556  1.00  0.00    +0.000 N 
ATOM      9  C7  UNL A   1      15.108  48.072   9.285  1.00  0.00    +0.000 C 
ATOM     87  S1  UNL A   1      13.843  47.533   8.241  1.00  0.00    +0.000 S 
ATOM     88  C61 UNL A   1      12.748  47.501   9.557  1.00  0.00    +0.000 C 
BRANCH    7    6
ATOM     97  C69 UNL A   1      12.628  46.416  12.652  1.00  0.00    +0.000 C 
ATOM     98  C70 UNL A   1      12.143  46.349  13.964  1.00  0.00    +0.000 C 
ATOM      3  C2  UNL A   1      11.877  47.524  14.672  1.00  0.00    +0.000 C 
ATOM      4  C3  UNL A   1      12.049  48.760  14.052  1.00  0.00    +0.000 C 
ATOM      5  C4  UNL A   1      12.543  48.829  12.750  1.00  0.00    +0.000 C 
ATOM    102  H4  UNL A   1      11.810  49.627  14.558  1.00  0.00    +0.000 H 
ATOM      6  C5  UNL A   1      12.858  47.657  12.049  1.00  0.00    +0.000 C 
ATOM    103  H5  UNL A   1      12.678  49.748  12.299  1.00  0.00    +0.000 H 
ATOM    142  H44 UNL A   1      12.814  45.547  12.128  1.00  0.00    +0.000 H 
ATOM    143  H45 UNL A   1      11.981  45.431  14.409  1.00  0.00    +0.000 H 
BRANCH    3    2
ATOM      2  O1  UNL A   1      11.398  47.569  15.951  1.00  0.00    +0.000 O 
BRANCH    2    1
ATOM      1  C1  UNL A   1      11.575  46.365  16.693  1.00  0.00    +0.000 C 
ATOM     99  H1  UNL A   1      12.327  45.765  16.225  1.00  0.00    +0.000 H 
ATOM    100  H2  UNL A   1      10.652  45.823  16.718  1.00  0.00    +0.000 H 
ATOM    101  H3  UNL A   1      11.876  46.603  17.691  1.00  0.00    +0.000 H 
ENDBRANCH    2    1
ENDBRANCH    3    2
ENDBRANCH    7    6
BRANCH   88   89
ATOM    135  H37 UNL A   1      11.486  45.465   8.289  1.00  0.00    +0.000 H 
ATOM    136  H38 UNL A   1       9.100  45.147   8.013  1.00  0.00    +0.000 H 
ATOM    140  H42 UNL A   1       8.359  48.754  10.025  1.00  0.00    +0.000 H 
ATOM    141  H43 UNL A   1      10.744  49.088  10.286  1.00  0.00    +0.000 H 
ATOM     89  C62 UNL A   1      11.316  47.294   9.331  1.00  0.00    +0.000 C 
ATOM     90  C63 UNL A   1      10.827  46.165   8.666  1.00  0.00    +0.000 C 
ATOM     91  C64 UNL A   1       9.449  45.981   8.510  1.00  0.00    +0.000 C 
ATOM     92  C65 UNL A   1       8.540  46.911   9.018  1.00  0.00    +0.000 C 
ATOM     95  C67 UNL A   1       9.019  48.050   9.660  1.00  0.00    +0.000 C 
ATOM     96  C68 UNL A   1      10.396  48.239   9.812  1.00  0.00    +0.000 C 
BRANCH   92   93
ATOM     93  O4  UNL A   1       7.223  46.601   8.822  1.00  0.00    +0.000 O 
BRANCH   93   94
ATOM    137  H39 UNL A   1       5.888  47.945   9.598  1.00  0.00    +0.000 H 
ATOM    138  H40 UNL A   1       6.839  47.074  10.776  1.00  0.00    +0.000 H 
ATOM    139  H41 UNL A   1       5.539  46.266   9.935  1.00  0.00    +0.000 H 
ATOM     94  C66 UNL A   1       6.316  46.996   9.846  1.00  0.00    +0.000 C 
ENDBRANCH   93   94
ENDBRANCH   92   93
ENDBRANCH   88   89
ENDBRANCH   10    9
ENDBRANCH   11   10
ENDBRANCH   12   11
ENDBRANCH   14   12
ENDBRANCH   15   14
ENDBRANCH   16   15
ENDBRANCH   17   16
ENDBRANCH   18   17
ENDBRANCH   19   18
ENDBRANCH   20   19
ENDBRANCH   21   20
ENDBRANCH   22   21
ENDBRANCH   24   22
ENDBRANCH   28   27
BRANCH   32   33
ATOM     33  C25 UNL A   1      18.178  55.571   0.130  1.00  0.00    +0.000 C 
ATOM     34  C26 UNL A   1      17.704  56.328  -0.952  1.00  0.00    +0.000 C 
ATOM     35  F1  UNL A   1      16.543  56.008  -1.543  1.00  0.00    +0.000 F 
ATOM     36  C27 UNL A   1      18.442  57.395  -1.457  1.00  0.00    +0.000 C 
ATOM     37  F2  UNL A   1      17.995  58.072  -2.524  1.00  0.00    +0.000 F 
ATOM     38  C28 UNL A   1      19.649  57.746  -0.871  1.00  0.00    +0.000 C 
ATOM     39  F3  UNL A   1      20.358  58.774  -1.357  1.00  0.00    +0.000 F 
ATOM     40  C29 UNL A   1      20.125  57.027   0.215  1.00  0.00    +0.000 C 
ATOM     41  F4  UNL A   1      21.286  57.371   0.790  1.00  0.00    +0.000 F 
ATOM     42  C30 UNL A   1      19.402  55.943   0.705  1.00  0.00    +0.000 C 
ATOM     43  F5  UNL A   1      19.898  55.254   1.744  1.00  0.00    +0.000 F 
ENDBRANCH   32   33
BRANCH   49   50
ATOM     50  C36 UNL A   1      16.881  48.670  -1.502  1.00  0.00    +0.000 C 
ATOM     51  C37 UNL A   1      16.210  48.556  -2.728  1.00  0.00    +0.000 C 
ATOM     52  F6  UNL A   1      15.131  49.313  -2.979  1.00  0.00    +0.000 F 
ATOM     53  C38 UNL A   1      16.625  47.637  -3.688  1.00  0.00    +0.000 C 
ATOM     54  F7  UNL A   1      15.944  47.518  -4.836  1.00  0.00    +0.000 F 
ATOM     55  C39 UNL A   1      17.734  46.838  -3.454  1.00  0.00    +0.000 C 
ATOM     56  F8  UNL A   1      18.136  45.958  -4.381  1.00  0.00    +0.000 F 
ATOM     57  C40 UNL A   1      18.420  46.943  -2.253  1.00  0.00    +0.000 C 
ATOM     58  F9  UNL A   1      19.497  46.178  -2.029  1.00  0.00    +0.000 F 
ATOM     59  C41 UNL A   1      17.993  47.842  -1.281  1.00  0.00    +0.000 C 
ATOM     60  F10 UNL A   1      18.671  47.916  -0.126  1.00  0.00    +0.000 F 
ENDBRANCH   49   50
BRANCH   64   65
ATOM     65  C45 UNL A   1      12.371  48.350   3.802  1.00  0.00    +0.000 C 
ATOM     66  C46 UNL A   1      11.022  48.336   3.422  1.00  0.00    +0.000 C 
ATOM     67  F11 UNL A   1      10.541  49.308   2.633  1.00  0.00    +0.000 F 
ATOM     68  C47 UNL A   1      10.158  47.341   3.873  1.00  0.00    +0.000 C 
ATOM     69  F12 UNL A   1       8.867  47.367   3.519  1.00  0.00    +0.000 F 
ATOM     70  C48 UNL A   1      10.633  46.327   4.693  1.00  0.00    +0.000 C 
ATOM     71  F13 UNL A   1       9.805  45.364   5.117  1.00  0.00    +0.000 F 
ATOM     72  C49 UNL A   1      11.966  46.317   5.075  1.00  0.00    +0.000 C 
ATOM     73  F14 UNL A   1      12.431  45.333   5.857  1.00  0.00    +0.000 F 
ATOM     74  C50 UNL A   1      12.825  47.325   4.645  1.00  0.00    +0.000 C 
ATOM     75  F15 UNL A   1      14.109  47.293   5.032  1.00  0.00    +0.000 F 
ENDBRANCH   64   65
TORSDOF 23
ENDMDL
MODEL 4
REMARK VINA RESULT:      -8.3      1.126      3.103
ROOT
ATOM    129  H31 UNL A   1      13.506  46.562   2.516  1.00  0.00    +0.000 H 
ATOM    130  H32 UNL A   1      15.197  46.788   0.606  1.00  0.00    +0.000 H 
ATOM    131  H33 UNL A   1      16.419  56.532   2.738  1.00  0.00    +0.000 H 
ATOM    132  H34 UNL A   1      15.097  56.222   4.910  1.00  0.00    +0.000 H 
ATOM     28  C21 UNL A   1      13.988  53.616   5.209  1.00  0.00    +0.000 C 
ATOM     29  C22 UNL A   1      14.915  54.100   4.132  1.00  0.00    +0.000 C 
ATOM     30  N5  UNL A   1      15.410  53.446   3.112  1.00  0.00    +0.000 N 
ATOM     31  C23 UNL A   1      16.160  54.372   2.397  1.00  0.00    +0.000 C 
ATOM     32  C24 UNL A   1      16.909  54.173   1.286  1.00  0.00    +0.000 C 
ATOM     44  C31 UNL A   1      17.075  52.900   0.637  1.00  0.00    +0.000 C 
ATOM     45  C32 UNL A   1      17.894  52.577  -0.433  1.00  0.00    +0.000 C 
ATOM     46  C33 UNL A   1      17.685  51.231  -0.752  1.00  0.00    +0.000 C 
ATOM     47  C34 UNL A   1      16.770  50.704   0.145  1.00  0.00    +0.000 C 
ATOM     48  N6  UNL A   1      16.408  51.737   0.993  1.00  0.00    +0.000 N 
ATOM     49  C35 UNL A   1      16.263  49.357   0.224  1.00  0.00    +0.000 C 
ATOM     61  C42 UNL A   1      15.395  48.909   1.164  1.00  0.00    +0.000 C 
ATOM     62  N7  UNL A   1      14.806  49.605   2.210  1.00  0.00    +0.000 N 
ATOM     63  C43 UNL A   1      14.036  48.743   2.828  1.00  0.00    +0.000 C 
ATOM     64  C44 UNL A   1      13.169  48.949   4.038  1.00  0.00    +0.000 C 
ATOM     76  C51 UNL A   1      13.177  50.142   4.662  1.00  0.00    +0.000 C 
ATOM     77  C52 UNL A   1      12.401  50.477   5.852  1.00  0.00    +0.000 C 
ATOM     78  C53 UNL A   1      12.612  51.766   6.163  1.00  0.00    +0.000 C 
ATOM     79  C54 UNL A   1      13.563  52.338   5.209  1.00  0.00    +0.000 C 
ATOM     80  N8  UNL A   1      13.860  51.296   4.367  1.00  0.00    +0.000 N 
ATOM     81  C55 UNL A   1      14.039  47.400   2.234  1.00  0.00    +0.000 C 
ATOM     82  C56 UNL A   1      14.907  47.547   1.242  1.00  0.00    +0.000 C 
ATOM     83  C57 UNL A   1      16.019  55.642   3.077  1.00  0.00    +0.000 C 
ATOM     84  C58 UNL A   1      15.313  55.515   4.191  1.00  0.00    +0.000 C 
ATOM    123  H25 UNL A   1      18.544  53.219  -0.912  1.00  0.00    +0.000 H 
ATOM    124  H26 UNL A   1      18.136  50.718  -1.526  1.00  0.00    +0.000 H 
ATOM    125  H27 UNL A   1      15.770  51.659   1.740  1.00  0.00    +0.000 H 
ATOM    126  H28 UNL A   1      11.788  49.829   6.370  1.00  0.00    +0.000 H 
ATOM    127  H29 UNL A   1      12.174  52.272   6.949  1.00  0.00    +0.000 H 
ATOM    128  H30 UNL A   1      14.499  51.370   3.622  1.00  0.00    +0.000 H 
ENDROOT
BRANCH   28   27
ATOM    122  H24 UNL A   1      11.662  55.010   5.199  1.00  0.00    +0.000 H 
ATOM    133  H35 UNL A   1      15.090  54.320   7.547  1.00  0.00    +0.000 H 
ATOM    134  H36 UNL A   1      14.240  55.846   9.227  1.00  0.00    +0.000 H 
ATOM     85  C59 UNL A   1      14.195  54.809   7.392  1.00  0.00    +0.000 C 
ATOM     86  C60 UNL A   1      13.727  55.714   8.341  1.00  0.00    +0.000 C 
ATOM     24  C17 UNL A   1      12.561  56.444   8.091  1.00  0.00    +0.000 C 
ATOM     25  C18 UNL A   1      11.797  56.177   6.952  1.00  0.00    +0.000 C 
ATOM     26  C19 UNL A   1      12.236  55.225   6.029  1.00  0.00    +0.000 C 
ATOM     27  C20 UNL A   1      13.457  54.559   6.226  1.00  0.00    +0.000 C 
ATOM    121  H23 UNL A   1      10.912  56.681   6.792  1.00  0.00    +0.000 H 
BRANCH   24   22
ATOM     22  C16 UNL A   1      12.098  57.489   9.030  1.00  0.00    +0.000 C 
ATOM     23  O3  UNL A   1      12.301  58.672   8.769  1.00  0.00    +0.000 O 
BRANCH   22   21
ATOM     21  N4  UNL A   1      11.458  57.141  10.192  1.00  0.00    +0.000 N 
ATOM    120  H22 UNL A   1      11.768  57.612  11.000  1.00  0.00    +0.000 H 
BRANCH   21   20
ATOM     20  C15 UNL A   1      10.390  56.177  10.408  1.00  0.00    +0.000 C 
ATOM    118  H20 UNL A   1       9.529  56.694  10.777  1.00  0.00    +0.000 H 
ATOM    119  H21 UNL A   1      10.186  55.699   9.473  1.00  0.00    +0.000 H 
BRANCH   20   19
ATOM     19  C14 UNL A   1      10.783  55.096  11.412  1.00  0.00    +0.000 C 
ATOM    116  H18 UNL A   1      11.032  55.576  12.336  1.00  0.00    +0.000 H 
ATOM    117  H19 UNL A   1       9.944  54.438  11.492  1.00  0.00    +0.000 H 
BRANCH   19   18
ATOM     18  C13 UNL A   1      11.973  54.231  10.989  1.00  0.00    +0.000 C 
ATOM    115  H17 UNL A   1      12.440  53.906  11.896  1.00  0.00    +0.000 H 
ATOM    114  H16 UNL A   1      12.611  54.825  10.369  1.00  0.00    +0.000 H 
BRANCH   18   17
ATOM     17  C12 UNL A   1      11.615  52.955  10.216  1.00  0.00    +0.000 C 
ATOM    113  H15 UNL A   1      11.080  53.276   9.346  1.00  0.00    +0.000 H 
ATOM    112  H14 UNL A   1      11.041  52.325  10.862  1.00  0.00    +0.000 H 
BRANCH   17   16
ATOM    110  H12 UNL A   1      12.546  51.108   9.704  1.00  0.00    +0.000 H 
ATOM    111  H13 UNL A   1      13.042  52.506   8.724  1.00  0.00    +0.000 H 
ATOM     16  C11 UNL A   1      12.814  52.145   9.704  1.00  0.00    +0.000 C 
BRANCH   16   15
ATOM    108  H10 UNL A   1      14.026  53.261  11.057  1.00  0.00    +0.000 H 
ATOM    109  H11 UNL A   1      14.120  51.514  11.256  1.00  0.00    +0.000 H 
ATOM     15  C10 UNL A   1      14.075  52.319  10.553  1.00  0.00    +0.000 C 
BRANCH   15   14
ATOM    107  H9  UNL A   1      15.832  53.089   9.757  1.00  0.00    +0.000 H 
ATOM     14  N3  UNL A   1      15.271  52.281   9.735  1.00  0.00    +0.000 N 
BRANCH   14   12
ATOM     12  C9  UNL A   1      15.720  51.265   8.936  1.00  0.00    +0.000 C 
ATOM     13  O2  UNL A   1      15.625  51.396   7.714  1.00  0.00    +0.000 O 
BRANCH   12   11
ATOM    105  H7  UNL A   1      17.265  49.813   9.201  1.00  0.00    +0.000 H 
ATOM    106  H8  UNL A   1      16.269  50.103  10.629  1.00  0.00    +0.000 H 
ATOM     11  C8  UNL A   1      16.272  49.980   9.566  1.00  0.00    +0.000 C 
BRANCH   11   10
ATOM     10  N2  UNL A   1      15.452  48.826   9.242  1.00  0.00    +0.000 N 
ATOM    104  H6  UNL A   1      15.811  48.192   8.579  1.00  0.00    +0.000 H 
BRANCH   10    9
ATOM      7  C6  UNL A   1      12.090  48.010   9.755  1.00  0.00    +0.000 C 
ATOM      8  N1  UNL A   1      13.193  48.366   8.999  1.00  0.00    +0.000 N 
ATOM      9  C7  UNL A   1      14.241  48.547   9.769  1.00  0.00    +0.000 C 
ATOM     87  S1  UNL A   1      13.925  48.344  11.454  1.00  0.00    +0.000 S 
ATOM     88  C61 UNL A   1      12.330  47.829  11.110  1.00  0.00    +0.000 C 
BRANCH    7    6
ATOM     97  C69 UNL A   1      10.256  48.728   8.252  1.00  0.00    +0.000 C 
ATOM     98  C70 UNL A   1       9.052  48.464   7.588  1.00  0.00    +0.000 C 
ATOM      3  C2  UNL A   1       8.374  47.265   7.820  1.00  0.00    +0.000 C 
ATOM      4  C3  UNL A   1       8.874  46.355   8.750  1.00  0.00    +0.000 C 
ATOM      5  C4  UNL A   1      10.079  46.610   9.404  1.00  0.00    +0.000 C 
ATOM    102  H4  UNL A   1       8.350  45.490   8.957  1.00  0.00    +0.000 H 
ATOM      6  C5  UNL A   1      10.790  47.789   9.141  1.00  0.00    +0.000 C 
ATOM    103  H5  UNL A   1      10.449  45.928  10.084  1.00  0.00    +0.000 H 
ATOM    142  H44 UNL A   1      10.751  49.618   8.086  1.00  0.00    +0.000 H 
ATOM    143  H45 UNL A   1       8.664  49.155   6.927  1.00  0.00    +0.000 H 
BRANCH    3    2
ATOM      2  O1  UNL A   1       7.192  46.913   7.230  1.00  0.00    +0.000 O 
BRANCH    2    1
ATOM      1  C1  UNL A   1       6.764  47.790   6.192  1.00  0.00    +0.000 C 
ATOM     99  H1  UNL A   1       6.793  47.275   5.255  1.00  0.00    +0.000 H 
ATOM    100  H2  UNL A   1       7.416  48.639   6.152  1.00  0.00    +0.000 H 
ATOM    101  H3  UNL A   1       5.765  48.117   6.391  1.00  0.00    +0.000 H 
ENDBRANCH    2    1
ENDBRANCH    3    2
ENDBRANCH    7    6
BRANCH   88   89
ATOM    135  H37 UNL A   1      12.525  45.445  12.385  1.00  0.00    +0.000 H 
ATOM    136  H38 UNL A   1      11.128  44.607  14.178  1.00  0.00    +0.000 H 
ATOM    140  H42 UNL A   1       8.796  48.093  14.027  1.00  0.00    +0.000 H 
ATOM    141  H43 UNL A   1      10.178  48.927  12.220  1.00  0.00    +0.000 H 
ATOM     89  C62 UNL A   1      11.483  47.268  12.165  1.00  0.00    +0.000 C 
ATOM     90  C63 UNL A   1      11.739  46.015  12.733  1.00  0.00    +0.000 C 
ATOM     91  C64 UNL A   1      10.933  45.534  13.771  1.00  0.00    +0.000 C 
ATOM     92  C65 UNL A   1       9.868  46.293  14.262  1.00  0.00    +0.000 C 
ATOM     95  C67 UNL A   1       9.592  47.530  13.685  1.00  0.00    +0.000 C 
ATOM     96  C68 UNL A   1      10.392  48.011  12.645  1.00  0.00    +0.000 C 
BRANCH   92   93
ATOM     93  O4  UNL A   1       9.176  45.721  15.293  1.00  0.00    +0.000 O 
BRANCH   93   94
ATOM    137  H39 UNL A   1       9.971  45.065  17.061  1.00  0.00    +0.000 H 
ATOM    138  H40 UNL A   1      10.831  44.565  15.625  1.00  0.00    +0.000 H 
ATOM    139  H41 UNL A   1       9.306  43.818  16.034  1.00  0.00    +0.000 H 
ATOM     94  C66 UNL A   1       9.864  44.731  16.050  1.00  0.00    +0.000 C 
ENDBRANCH   93   94
ENDBRANCH   92   93
ENDBRANCH   88   89
ENDBRANCH   10    9
ENDBRANCH   11   10
ENDBRANCH   12   11
ENDBRANCH   14   12
ENDBRANCH   15   14
ENDBRANCH   16   15
ENDBRANCH   17   16
ENDBRANCH   18   17
ENDBRANCH   19   18
ENDBRANCH   20   19
ENDBRANCH   21   20
ENDBRANCH   22   21
ENDBRANCH   24   22
ENDBRANCH   28   27
BRANCH   32   33
ATOM     33  C25 UNL A   1      17.606  55.367   0.699  1.00  0.00    +0.000 C 
ATOM     34  C26 UNL A   1      17.008  56.155  -0.295  1.00  0.00    +0.000 C 
ATOM     35  F1  UNL A   1      15.797  55.833  -0.775  1.00  0.00    +0.000 F 
ATOM     36  C27 UNL A   1      17.670  57.257  -0.830  1.00  0.00    +0.000 C 
ATOM     37  F2  UNL A   1      17.102  57.965  -1.816  1.00  0.00    +0.000 F 
ATOM     38  C28 UNL A   1      18.926  57.610  -0.359  1.00  0.00    +0.000 C 
ATOM     39  F3  UNL A   1      19.562  58.672  -0.874  1.00  0.00    +0.000 F 
ATOM     40  C29 UNL A   1      19.526  56.860   0.640  1.00  0.00    +0.000 C 
ATOM     41  F4  UNL A   1      20.734  57.206   1.105  1.00  0.00    +0.000 F 
ATOM     42  C30 UNL A   1      18.877  55.741   1.158  1.00  0.00    +0.000 C 
ATOM     43  F5  UNL A   1      19.491  55.023   2.110  1.00  0.00    +0.000 F 
ENDBRANCH   32   33
BRANCH   49   50
ATOM     50  C36 UNL A   1      16.739  48.367  -0.797  1.00  0.00    +0.000 C 
ATOM     51  C37 UNL A   1      17.998  47.758  -0.692  1.00  0.00    +0.000 C 
ATOM     52  F6  UNL A   1      18.829  48.093   0.307  1.00  0.00    +0.000 F 
ATOM     53  C38 UNL A   1      18.421  46.825  -1.635  1.00  0.00    +0.000 C 
ATOM     54  F7  UNL A   1      19.644  46.286  -1.537  1.00  0.00    +0.000 F 
ATOM     55  C39 UNL A   1      17.586  46.463  -2.681  1.00  0.00    +0.000 C 
ATOM     56  F8  UNL A   1      17.993  45.561  -3.584  1.00  0.00    +0.000 F 
ATOM     57  C40 UNL A   1      16.331  47.044  -2.796  1.00  0.00    +0.000 C 
ATOM     58  F9  UNL A   1      15.519  46.687  -3.800  1.00  0.00    +0.000 F 
ATOM     59  C41 UNL A   1      15.915  47.995  -1.869  1.00  0.00    +0.000 C 
ATOM     60  F10 UNL A   1      14.700  48.547  -2.011  1.00  0.00    +0.000 F 
ENDBRANCH   49   50
BRANCH   64   65
ATOM     65  C45 UNL A   1      12.323  47.853   4.570  1.00  0.00    +0.000 C 
ATOM     66  C46 UNL A   1      12.767  47.049   5.628  1.00  0.00    +0.000 C 
ATOM     67  F11 UNL A   1      13.993  47.234   6.139  1.00  0.00    +0.000 F 
ATOM     68  C47 UNL A   1      11.965  46.034   6.145  1.00  0.00    +0.000 C 
ATOM     69  F12 UNL A   1      12.424  45.260   7.137  1.00  0.00    +0.000 F 
ATOM     70  C48 UNL A   1      10.695  45.821   5.630  1.00  0.00    +0.000 C 
ATOM     71  F13 UNL A   1       9.919  44.853   6.135  1.00  0.00    +0.000 F 
ATOM     72  C49 UNL A   1      10.231  46.610   4.588  1.00  0.00    +0.000 C 
ATOM     73  F14 UNL A   1       9.000  46.416   4.096  1.00  0.00    +0.000 F 
ATOM     74  C50 UNL A   1      11.041  47.609   4.054  1.00  0.00    +0.000 C 
ATOM     75  F15 UNL A   1      10.570  48.356   3.044  1.00  0.00    +0.000 F 
ENDBRANCH   64   65
TORSDOF 23
ENDMDL
MODEL 5
REMARK VINA RESULT:      -8.1     46.386     51.382
ROOT
ATOM    129  H31 UNL A   1      50.599  22.614  12.457  1.00  0.00    +0.000 H 
ATOM    130  H32 UNL A   1      50.902  23.158  14.941  1.00  0.00    +0.000 H 
ATOM    131  H33 UNL A   1      60.302  19.617  14.650  1.00  0.00    +0.000 H 
ATOM    132  H34 UNL A   1      60.176  19.494  12.095  1.00  0.00    +0.000 H 
ATOM     28  C21 UNL A   1      57.605  20.127  11.047  1.00  0.00    +0.000 C 
ATOM     29  C22 UNL A   1      58.063  20.223  12.474  1.00  0.00    +0.000 C 
ATOM     30  N5  UNL A   1      57.397  20.612  13.532  1.00  0.00    +0.000 N 
ATOM     31  C23 UNL A   1      58.266  20.456  14.603  1.00  0.00    +0.000 C 
ATOM     32  C24 UNL A   1      58.064  20.767  15.906  1.00  0.00    +0.000 C 
ATOM     44  C31 UNL A   1      56.856  21.357  16.421  1.00  0.00    +0.000 C 
ATOM     45  C32 UNL A   1      56.592  21.802  17.706  1.00  0.00    +0.000 C 
ATOM     46  C33 UNL A   1      55.268  22.252  17.750  1.00  0.00    +0.000 C 
ATOM     47  C34 UNL A   1      54.720  22.128  16.483  1.00  0.00    +0.000 C 
ATOM     48  N6  UNL A   1      55.706  21.581  15.678  1.00  0.00    +0.000 N 
ATOM     49  C35 UNL A   1      53.396  22.481  16.039  1.00  0.00    +0.000 C 
ATOM     61  C42 UNL A   1      52.949  22.366  14.764  1.00  0.00    +0.000 C 
ATOM     62  N7  UNL A   1      53.617  21.891  13.645  1.00  0.00    +0.000 N 
ATOM     63  C43 UNL A   1      52.761  21.964  12.655  1.00  0.00    +0.000 C 
ATOM     64  C44 UNL A   1      52.951  21.592  11.212  1.00  0.00    +0.000 C 
ATOM     76  C51 UNL A   1      54.159  21.172  10.791  1.00  0.00    +0.000 C 
ATOM     77  C52 UNL A   1      54.491  20.793   9.421  1.00  0.00    +0.000 C 
ATOM     78  C53 UNL A   1      55.765  20.373   9.379  1.00  0.00    +0.000 C 
ATOM     79  C54 UNL A   1      56.348  20.481  10.717  1.00  0.00    +0.000 C 
ATOM     80  N8  UNL A   1      55.328  20.983  11.486  1.00  0.00    +0.000 N 
ATOM     81  C55 UNL A   1      51.442  22.483  13.039  1.00  0.00    +0.000 C 
ATOM     82  C56 UNL A   1      51.620  22.742  14.327  1.00  0.00    +0.000 C 
ATOM     83  C57 UNL A   1      59.493  19.899  14.073  1.00  0.00    +0.000 C 
ATOM     84  C58 UNL A   1      59.442  19.795  12.754  1.00  0.00    +0.000 C 
ATOM    123  H25 UNL A   1      57.258  21.801  18.494  1.00  0.00    +0.000 H 
ATOM    124  H26 UNL A   1      54.782  22.614  18.585  1.00  0.00    +0.000 H 
ATOM    125  H27 UNL A   1      55.607  21.382  14.719  1.00  0.00    +0.000 H 
ATOM    126  H28 UNL A   1      53.849  20.839   8.614  1.00  0.00    +0.000 H 
ATOM    127  H29 UNL A   1      56.255  20.029   8.538  1.00  0.00    +0.000 H 
ATOM    128  H30 UNL A   1      55.425  21.188  12.445  1.00  0.00    +0.000 H 
ENDROOT
BRANCH   28   27
ATOM    122  H24 UNL A   1      59.504  21.363   9.557  1.00  0.00    +0.000 H 
ATOM    133  H35 UNL A   1      57.759  17.586  10.214  1.00  0.00    +0.000 H 
ATOM    134  H36 UNL A   1      59.211  16.627   8.526  1.00  0.00    +0.000 H 
ATOM     85  C59 UNL A   1      58.418  18.190   9.699  1.00  0.00    +0.000 C 
ATOM     86  C60 UNL A   1      59.224  17.644   8.704  1.00  0.00    +0.000 C 
ATOM     24  C17 UNL A   1      60.052  18.477   7.944  1.00  0.00    +0.000 C 
ATOM     25  C18 UNL A   1      60.167  19.832   8.265  1.00  0.00    +0.000 C 
ATOM     26  C19 UNL A   1      59.403  20.368   9.304  1.00  0.00    +0.000 C 
ATOM     27  C20 UNL A   1      58.496  19.556  10.006  1.00  0.00    +0.000 C 
ATOM    121  H23 UNL A   1      60.815  20.436   7.736  1.00  0.00    +0.000 H 
BRANCH   24   22
ATOM     22  C16 UNL A   1      60.838  17.944   6.810  1.00  0.00    +0.000 C 
ATOM     23  O3  UNL A   1      61.274  16.798   6.859  1.00  0.00    +0.000 O 
BRANCH   22   21
ATOM     21  N4  UNL A   1      61.091  18.731   5.715  1.00  0.00    +0.000 N 
ATOM    120  H22 UNL A   1      62.044  18.880   5.516  1.00  0.00    +0.000 H 
BRANCH   21   20
ATOM     20  C15 UNL A   1      60.159  19.378   4.804  1.00  0.00    +0.000 C 
ATOM    118  H20 UNL A   1      59.581  20.091   5.353  1.00  0.00    +0.000 H 
ATOM    119  H21 UNL A   1      60.729  19.850   4.032  1.00  0.00    +0.000 H 
BRANCH   20   19
ATOM     19  C14 UNL A   1      59.211  18.379   4.143  1.00  0.00    +0.000 C 
ATOM    116  H18 UNL A   1      58.930  18.771   3.188  1.00  0.00    +0.000 H 
ATOM    117  H19 UNL A   1      59.744  17.455   4.080  1.00  0.00    +0.000 H 
BRANCH   19   18
ATOM     18  C13 UNL A   1      57.933  18.089   4.934  1.00  0.00    +0.000 C 
ATOM    115  H17 UNL A   1      58.125  18.411   5.936  1.00  0.00    +0.000 H 
ATOM    114  H16 UNL A   1      57.724  17.043   4.853  1.00  0.00    +0.000 H 
BRANCH   18   17
ATOM     17  C12 UNL A   1      56.688  18.858   4.473  1.00  0.00    +0.000 C 
ATOM    113  H15 UNL A   1      55.874  18.165   4.528  1.00  0.00    +0.000 H 
ATOM    112  H14 UNL A   1      56.870  19.222   3.483  1.00  0.00    +0.000 H 
BRANCH   17   16
ATOM    110  H12 UNL A   1      56.978  20.105   6.176  1.00  0.00    +0.000 H 
ATOM    111  H13 UNL A   1      56.331  20.923   4.736  1.00  0.00    +0.000 H 
ATOM     16  C11 UNL A   1      56.294  20.051   5.354  1.00  0.00    +0.000 C 
BRANCH   16   15
ATOM    108  H10 UNL A   1      54.774  20.639   6.729  1.00  0.00    +0.000 H 
ATOM    109  H11 UNL A   1      54.186  20.195   5.129  1.00  0.00    +0.000 H 
ATOM     15  C10 UNL A   1      54.873  19.953   5.913  1.00  0.00    +0.000 C 
BRANCH   15   14
ATOM    107  H9  UNL A   1      55.359  18.025   6.513  1.00  0.00    +0.000 H 
ATOM     14  N3  UNL A   1      54.581  18.613   6.382  1.00  0.00    +0.000 N 
BRANCH   14   12
ATOM     12  C9  UNL A   1      53.361  18.062   6.666  1.00  0.00    +0.000 C 
ATOM     13  O2  UNL A   1      52.790  18.406   7.703  1.00  0.00    +0.000 O 
BRANCH   12   11
ATOM    105  H7  UNL A   1      53.546  16.587   5.132  1.00  0.00    +0.000 H 
ATOM    106  H8  UNL A   1      52.301  16.250   6.335  1.00  0.00    +0.000 H 
ATOM     11  C8  UNL A   1      52.763  17.002   5.732  1.00  0.00    +0.000 C 
BRANCH   11   10
ATOM     10  N2  UNL A   1      51.751  17.567   4.857  1.00  0.00    +0.000 N 
ATOM    104  H6  UNL A   1      52.064  18.116   4.101  1.00  0.00    +0.000 H 
BRANCH   10    9
ATOM      7  C6  UNL A   1      48.271  17.884   4.703  1.00  0.00    +0.000 C 
ATOM      8  N1  UNL A   1      49.578  18.306   4.530  1.00  0.00    +0.000 N 
ATOM      9  C7  UNL A   1      50.417  17.405   4.988  1.00  0.00    +0.000 C 
ATOM     87  S1  UNL A   1      49.658  16.027   5.699  1.00  0.00    +0.000 S 
ATOM     88  C61 UNL A   1      48.120  16.604   5.217  1.00  0.00    +0.000 C 
BRANCH    7    6
ATOM     97  C69 UNL A   1      46.854  19.891   5.017  1.00  0.00    +0.000 C 
ATOM     98  C70 UNL A   1      45.834  20.744   4.575  1.00  0.00    +0.000 C 
ATOM      3  C2  UNL A   1      45.099  20.420   3.432  1.00  0.00    +0.000 C 
ATOM      4  C3  UNL A   1      45.350  19.224   2.762  1.00  0.00    +0.000 C 
ATOM      5  C4  UNL A   1      46.373  18.380   3.193  1.00  0.00    +0.000 C 
ATOM    102  H4  UNL A   1      44.777  18.962   1.944  1.00  0.00    +0.000 H 
ATOM      6  C5  UNL A   1      47.147  18.720   4.311  1.00  0.00    +0.000 C 
ATOM    103  H5  UNL A   1      46.561  17.500   2.687  1.00  0.00    +0.000 H 
ATOM    142  H44 UNL A   1      47.389  20.128   5.867  1.00  0.00    +0.000 H 
ATOM    143  H45 UNL A   1      45.625  21.611   5.094  1.00  0.00    +0.000 H 
BRANCH    3    2
ATOM      2  O1  UNL A   1      44.082  21.178   2.921  1.00  0.00    +0.000 O 
BRANCH    2    1
ATOM      1  C1  UNL A   1      44.428  21.929   1.761  1.00  0.00    +0.000 C 
ATOM     99  H1  UNL A   1      43.832  21.603   0.935  1.00  0.00    +0.000 H 
ATOM    100  H2  UNL A   1      45.464  21.777   1.534  1.00  0.00    +0.000 H 
ATOM    101  H3  UNL A   1      44.251  22.968   1.943  1.00  0.00    +0.000 H 
ENDBRANCH    2    1
ENDBRANCH    3    2
ENDBRANCH    7    6
BRANCH   88   89
ATOM    135  H37 UNL A   1      47.835  13.955   4.715  1.00  0.00    +0.000 H 
ATOM    136  H38 UNL A   1      45.852  12.597   5.019  1.00  0.00    +0.000 H 
ATOM    140  H42 UNL A   1      43.707  15.968   6.303  1.00  0.00    +0.000 H 
ATOM    141  H43 UNL A   1      45.682  17.334   5.983  1.00  0.00    +0.000 H 
ATOM     89  C62 UNL A   1      46.932  15.757   5.345  1.00  0.00    +0.000 C 
ATOM     90  C63 UNL A   1      46.964  14.388   5.059  1.00  0.00    +0.000 C 
ATOM     91  C64 UNL A   1      45.818  13.604   5.237  1.00  0.00    +0.000 C 
ATOM     92  C65 UNL A   1      44.631  14.169   5.708  1.00  0.00    +0.000 C 
ATOM     95  C67 UNL A   1      44.584  15.535   5.972  1.00  0.00    +0.000 C 
ATOM     96  C68 UNL A   1      45.726  16.321   5.789  1.00  0.00    +0.000 C 
BRANCH   92   93
ATOM     93  O4  UNL A   1      43.594  13.291   5.863  1.00  0.00    +0.000 O 
BRANCH   93   94
ATOM    137  H39 UNL A   1      42.021  13.179   7.168  1.00  0.00    +0.000 H 
ATOM    138  H40 UNL A   1      41.653  13.889   5.615  1.00  0.00    +0.000 H 
ATOM    139  H41 UNL A   1      42.568  14.796   6.794  1.00  0.00    +0.000 H 
ATOM     94  C66 UNL A   1      42.384  13.821   6.392  1.00  0.00    +0.000 C 
ENDBRANCH   93   94
ENDBRANCH   92   93
ENDBRANCH   88   89
ENDBRANCH   10    9
ENDBRANCH   11   10
ENDBRANCH   12   11
ENDBRANCH   14   12
ENDBRANCH   15   14
ENDBRANCH   16   15
ENDBRANCH   17   16
ENDBRANCH   18   17
ENDBRANCH   19   18
ENDBRANCH   20   19
ENDBRANCH   21   20
ENDBRANCH   22   21
ENDBRANCH   24   22
ENDBRANCH   28   27
BRANCH   32   33
ATOM     33  C25 UNL A   1      59.176  20.471  16.870  1.00  0.00    +0.000 C 
ATOM     34  C26 UNL A   1      60.206  21.391  17.114  1.00  0.00    +0.000 C 
ATOM     35  F1  UNL A   1      60.239  22.558  16.454  1.00  0.00    +0.000 F 
ATOM     36  C27 UNL A   1      61.232  21.097  18.009  1.00  0.00    +0.000 C 
ATOM     37  F2  UNL A   1      62.233  21.970  18.188  1.00  0.00    +0.000 F 
ATOM     38  C28 UNL A   1      61.228  19.896  18.701  1.00  0.00    +0.000 C 
ATOM     39  F3  UNL A   1      62.215  19.615  19.564  1.00  0.00    +0.000 F 
ATOM     40  C29 UNL A   1      60.207  18.981  18.494  1.00  0.00    +0.000 C 
ATOM     41  F4  UNL A   1      60.196  17.824  19.170  1.00  0.00    +0.000 F 
ATOM     42  C30 UNL A   1      59.195  19.261  17.579  1.00  0.00    +0.000 C 
ATOM     43  F5  UNL A   1      58.231  18.348  17.386  1.00  0.00    +0.000 F 
ENDBRANCH   32   33
BRANCH   49   50
ATOM     50  C36 UNL A   1      52.440  23.034  17.053  1.00  0.00    +0.000 C 
ATOM     51  C37 UNL A   1      52.266  24.416  17.216  1.00  0.00    +0.000 C 
ATOM     52  F6  UNL A   1      52.999  25.278  16.494  1.00  0.00    +0.000 F 
ATOM     53  C38 UNL A   1      51.360  24.918  18.146  1.00  0.00    +0.000 C 
ATOM     54  F7  UNL A   1      51.240  26.242  18.313  1.00  0.00    +0.000 F 
ATOM     55  C39 UNL A   1      50.593  24.051  18.909  1.00  0.00    +0.000 C 
ATOM     56  F8  UNL A   1      49.718  24.535  19.801  1.00  0.00    +0.000 F 
ATOM     57  C40 UNL A   1      50.740  22.680  18.755  1.00  0.00    +0.000 C 
ATOM     58  F9  UNL A   1      49.992  21.841  19.485  1.00  0.00    +0.000 F 
ATOM     59  C41 UNL A   1      51.662  22.175  17.844  1.00  0.00    +0.000 C 
ATOM     60  F10 UNL A   1      51.789  20.845  17.723  1.00  0.00    +0.000 F 
ENDBRANCH   49   50
BRANCH   64   65
ATOM     65  C45 UNL A   1      51.837  21.701  10.239  1.00  0.00    +0.000 C 
ATOM     66  C46 UNL A   1      51.064  20.582   9.901  1.00  0.00    +0.000 C 
ATOM     67  F11 UNL A   1      51.361  19.383  10.424  1.00  0.00    +0.000 F 
ATOM     68  C47 UNL A   1      50.003  20.686   9.004  1.00  0.00    +0.000 C 
ATOM     69  F12 UNL A   1      49.298  19.595   8.676  1.00  0.00    +0.000 F 
ATOM     70  C48 UNL A   1      49.680  21.914   8.448  1.00  0.00    +0.000 C 
ATOM     71  F13 UNL A   1      48.652  22.016   7.595  1.00  0.00    +0.000 F 
ATOM     72  C49 UNL A   1      50.427  23.037   8.774  1.00  0.00    +0.000 C 
ATOM     73  F14 UNL A   1      50.111  24.228   8.248  1.00  0.00    +0.000 F 
ATOM     74  C50 UNL A   1      51.504  22.930   9.651  1.00  0.00    +0.000 C 
ATOM     75  F15 UNL A   1      52.212  24.031   9.947  1.00  0.00    +0.000 F 
ENDBRANCH   64   65
TORSDOF 23
ENDMDL
MODEL 6
REMARK VINA RESULT:      -8.1      4.835     10.863
ROOT
ATOM    129  H31 UNL A   1      18.322  58.947   1.900  1.00  0.00    +0.000 H 
ATOM    130  H32 UNL A   1      20.311  60.437   1.284  1.00  0.00    +0.000 H 
ATOM    131  H33 UNL A   1      22.804  54.163  -6.160  1.00  0.00    +0.000 H 
ATOM    132  H34 UNL A   1      20.585  52.921  -5.856  1.00  0.00    +0.000 H 
ATOM     28  C21 UNL A   1      19.056  53.842  -3.636  1.00  0.00    +0.000 C 
ATOM     29  C22 UNL A   1      20.332  54.423  -4.176  1.00  0.00    +0.000 C 
ATOM     30  N5  UNL A   1      21.010  55.461  -3.756  1.00  0.00    +0.000 N 
ATOM     31  C23 UNL A   1      22.135  55.530  -4.568  1.00  0.00    +0.000 C 
ATOM     32  C24 UNL A   1      23.122  56.458  -4.565  1.00  0.00    +0.000 C 
ATOM     44  C31 UNL A   1      23.163  57.595  -3.684  1.00  0.00    +0.000 C 
ATOM     45  C32 UNL A   1      24.066  58.645  -3.671  1.00  0.00    +0.000 C 
ATOM     46  C33 UNL A   1      23.740  59.490  -2.605  1.00  0.00    +0.000 C 
ATOM     47  C34 UNL A   1      22.608  58.991  -1.980  1.00  0.00    +0.000 C 
ATOM     48  N6  UNL A   1      22.263  57.831  -2.655  1.00  0.00    +0.000 N 
ATOM     49  C35 UNL A   1      21.893  59.532  -0.852  1.00  0.00    +0.000 C 
ATOM     61  C42 UNL A   1      20.762  59.002  -0.324  1.00  0.00    +0.000 C 
ATOM     62  N7  UNL A   1      20.069  57.864  -0.711  1.00  0.00    +0.000 N 
ATOM     63  C43 UNL A   1      19.056  57.761   0.113  1.00  0.00    +0.000 C 
ATOM     64  C44 UNL A   1      17.970  56.722   0.152  1.00  0.00    +0.000 C 
ATOM     76  C51 UNL A   1      17.936  55.767  -0.796  1.00  0.00    +0.000 C 
ATOM     77  C52 UNL A   1      16.936  54.708  -0.891  1.00  0.00    +0.000 C 
ATOM     78  C53 UNL A   1      17.245  53.906  -1.921  1.00  0.00    +0.000 C 
ATOM     79  C54 UNL A   1      18.451  54.412  -2.577  1.00  0.00    +0.000 C 
ATOM     80  N8  UNL A   1      18.780  55.531  -1.853  1.00  0.00    +0.000 N 
ATOM     81  C55 UNL A   1      18.999  58.819   1.131  1.00  0.00    +0.000 C 
ATOM     82  C56 UNL A   1      20.044  59.565   0.801  1.00  0.00    +0.000 C 
ATOM     83  C57 UNL A   1      22.068  54.405  -5.477  1.00  0.00    +0.000 C 
ATOM     84  C58 UNL A   1      20.941  53.726  -5.319  1.00  0.00    +0.000 C 
ATOM    123  H25 UNL A   1      24.846  58.780  -4.334  1.00  0.00    +0.000 H 
ATOM    124  H26 UNL A   1      24.255  60.341  -2.330  1.00  0.00    +0.000 H 
ATOM    125  H27 UNL A   1      21.493  57.258  -2.436  1.00  0.00    +0.000 H 
ATOM    126  H28 UNL A   1      16.122  54.594  -0.266  1.00  0.00    +0.000 H 
ATOM    127  H29 UNL A   1      16.717  53.065  -2.206  1.00  0.00    +0.000 H 
ATOM    128  H30 UNL A   1      19.547  56.108  -2.071  1.00  0.00    +0.000 H 
ENDROOT
BRANCH   28   27
ATOM    122  H24 UNL A   1      17.384  53.505  -5.744  1.00  0.00    +0.000 H 
ATOM    133  H35 UNL A   1      19.515  51.326  -2.836  1.00  0.00    +0.000 H 
ATOM    134  H36 UNL A   1      18.633  49.260  -3.745  1.00  0.00    +0.000 H 
ATOM     85  C59 UNL A   1      18.855  51.353  -3.629  1.00  0.00    +0.000 C 
ATOM     86  C60 UNL A   1      18.321  50.168  -4.125  1.00  0.00    +0.000 C 
ATOM     24  C17 UNL A   1      17.359  50.209  -5.140  1.00  0.00    +0.000 C 
ATOM     25  C18 UNL A   1      17.028  51.426  -5.743  1.00  0.00    +0.000 C 
ATOM     26  C19 UNL A   1      17.610  52.609  -5.285  1.00  0.00    +0.000 C 
ATOM     27  C20 UNL A   1      18.503  52.585  -4.200  1.00  0.00    +0.000 C 
ATOM    121  H23 UNL A   1      16.354  51.450  -6.524  1.00  0.00    +0.000 H 
BRANCH   24   22
ATOM     22  C16 UNL A   1      16.694  48.976  -5.612  1.00  0.00    +0.000 C 
ATOM     23  O3  UNL A   1      16.251  48.925  -6.756  1.00  0.00    +0.000 O 
BRANCH   22   21
ATOM     21  N4  UNL A   1      16.560  47.898  -4.774  1.00  0.00    +0.000 N 
ATOM    120  H22 UNL A   1      17.305  47.254  -4.795  1.00  0.00    +0.000 H 
BRANCH   21   20
ATOM     20  C15 UNL A   1      15.478  47.565  -3.859  1.00  0.00    +0.000 C 
ATOM    118  H20 UNL A   1      14.562  47.948  -4.255  1.00  0.00    +0.000 H 
ATOM    119  H21 UNL A   1      15.446  46.500  -3.763  1.00  0.00    +0.000 H 
BRANCH   20   19
ATOM     19  C14 UNL A   1      15.699  48.155  -2.468  1.00  0.00    +0.000 C 
ATOM    116  H18 UNL A   1      15.222  47.514  -1.756  1.00  0.00    +0.000 H 
ATOM    117  H19 UNL A   1      16.757  48.222  -2.333  1.00  0.00    +0.000 H 
BRANCH   19   18
ATOM     18  C13 UNL A   1      15.148  49.571  -2.278  1.00  0.00    +0.000 C 
ATOM    115  H17 UNL A   1      14.185  49.455  -1.824  1.00  0.00    +0.000 H 
ATOM    114  H16 UNL A   1      15.114  50.045  -3.237  1.00  0.00    +0.000 H 
BRANCH   18   17
ATOM     17  C12 UNL A   1      15.957  50.469  -1.334  1.00  0.00    +0.000 C 
ATOM    113  H15 UNL A   1      15.256  50.867  -0.629  1.00  0.00    +0.000 H 
ATOM    112  H14 UNL A   1      16.441  51.219  -1.923  1.00  0.00    +0.000 H 
BRANCH   17   16
ATOM    110  H12 UNL A   1      16.554  49.280   0.331  1.00  0.00    +0.000 H 
ATOM    111  H13 UNL A   1      17.501  49.038  -1.154  1.00  0.00    +0.000 H 
ATOM     16  C11 UNL A   1      17.030  49.747  -0.507  1.00  0.00    +0.000 C 
BRANCH   16   15
ATOM    108  H10 UNL A   1      19.072  50.188  -0.079  1.00  0.00    +0.000 H 
ATOM    109  H11 UNL A   1      18.105  51.579  -0.561  1.00  0.00    +0.000 H 
ATOM     15  C10 UNL A   1      18.125  50.678   0.016  1.00  0.00    +0.000 C 
BRANCH   15   14
ATOM    107  H9  UNL A   1      17.530  51.914   1.576  1.00  0.00    +0.000 H 
ATOM     14  N3  UNL A   1      17.907  51.021   1.408  1.00  0.00    +0.000 N 
BRANCH   14   12
ATOM     12  C9  UNL A   1      18.160  50.261   2.517  1.00  0.00    +0.000 C 
ATOM     13  O2  UNL A   1      19.113  49.479   2.486  1.00  0.00    +0.000 O 
BRANCH   12   11
ATOM    105  H7  UNL A   1      17.600  51.123   4.389  1.00  0.00    +0.000 H 
ATOM    106  H8  UNL A   1      16.250  50.579   3.392  1.00  0.00    +0.000 H 
ATOM     11  C8  UNL A   1      17.237  50.355   3.738  1.00  0.00    +0.000 C 
BRANCH   11   10
ATOM     10  N2  UNL A   1      17.186  49.102   4.472  1.00  0.00    +0.000 N 
ATOM    104  H6  UNL A   1      17.675  48.337   4.089  1.00  0.00    +0.000 H 
BRANCH   10    9
ATOM      7  C6  UNL A   1      15.915  49.299   7.724  1.00  0.00    +0.000 C 
ATOM      8  N1  UNL A   1      16.764  49.642   6.686  1.00  0.00    +0.000 N 
ATOM      9  C7  UNL A   1      16.529  48.895   5.632  1.00  0.00    +0.000 C 
ATOM     87  S1  UNL A   1      15.303  47.703   5.869  1.00  0.00    +0.000 S 
ATOM     88  C61 UNL A   1      14.961  48.338   7.421  1.00  0.00    +0.000 C 
BRANCH    7    6
ATOM     97  C69 UNL A   1      16.943  49.546   9.964  1.00  0.00    +0.000 C 
ATOM     98  C70 UNL A   1      17.086  50.246  11.169  1.00  0.00    +0.000 C 
ATOM      3  C2  UNL A   1      16.275  51.352  11.434  1.00  0.00    +0.000 C 
ATOM      4  C3  UNL A   1      15.293  51.726  10.520  1.00  0.00    +0.000 C 
ATOM      5  C4  UNL A   1      15.157  51.038   9.314  1.00  0.00    +0.000 C 
ATOM    102  H4  UNL A   1      14.663  52.515  10.734  1.00  0.00    +0.000 H 
ATOM      6  C5  UNL A   1      15.998  49.957   9.019  1.00  0.00    +0.000 C 
ATOM    103  H5  UNL A   1      14.434  51.326   8.636  1.00  0.00    +0.000 H 
ATOM    142  H44 UNL A   1      17.537  48.723   9.774  1.00  0.00    +0.000 H 
ATOM    143  H45 UNL A   1      17.789  49.944  11.862  1.00  0.00    +0.000 H 
BRANCH    3    2
ATOM      2  O1  UNL A   1      16.330  52.099  12.578  1.00  0.00    +0.000 O 
BRANCH    2    1
ATOM      1  C1  UNL A   1      15.062  52.379  13.164  1.00  0.00    +0.000 C 
ATOM     99  H1  UNL A   1      14.334  51.692  12.784  1.00  0.00    +0.000 H 
ATOM    100  H2  UNL A   1      14.769  53.379  12.919  1.00  0.00    +0.000 H 
ATOM    101  H3  UNL A   1      15.130  52.277  14.226  1.00  0.00    +0.000 H 
ENDBRANCH    2    1
ENDBRANCH    3    2
ENDBRANCH    7    6
BRANCH   88   89
ATOM    135  H37 UNL A   1      12.388  49.179   7.286  1.00  0.00    +0.000 H 
ATOM    136  H38 UNL A   1      10.485  48.322   8.515  1.00  0.00    +0.000 H 
ATOM    140  H42 UNL A   1      12.970  45.596  10.516  1.00  0.00    +0.000 H 
ATOM    141  H43 UNL A   1      14.880  46.463   9.305  1.00  0.00    +0.000 H 
ATOM     89  C62 UNL A   1      13.793  47.878   8.176  1.00  0.00    +0.000 C 
ATOM     90  C63 UNL A   1      12.518  48.414   7.966  1.00  0.00    +0.000 C 
ATOM     91  C64 UNL A   1      11.419  47.916   8.674  1.00  0.00    +0.000 C 
ATOM     92  C65 UNL A   1      11.571  46.876   9.594  1.00  0.00    +0.000 C 
ATOM     95  C67 UNL A   1      12.841  46.353   9.826  1.00  0.00    +0.000 C 
ATOM     96  C68 UNL A   1      13.942  46.853   9.124  1.00  0.00    +0.000 C 
BRANCH   92   93
ATOM     93  O4  UNL A   1      10.416  46.464  10.199  1.00  0.00    +0.000 O 
BRANCH   93   94
ATOM    137  H39 UNL A   1       8.831  47.678   9.749  1.00  0.00    +0.000 H 
ATOM    138  H40 UNL A   1       8.482  45.967   9.755  1.00  0.00    +0.000 H 
ATOM    139  H41 UNL A   1       9.392  46.667   8.439  1.00  0.00    +0.000 H 
ATOM     94  C66 UNL A   1       9.205  46.709   9.492  1.00  0.00    +0.000 C 
ENDBRANCH   93   94
ENDBRANCH   92   93
ENDBRANCH   88   89
ENDBRANCH   10    9
ENDBRANCH   11   10
ENDBRANCH   12   11
ENDBRANCH   14   12
ENDBRANCH   15   14
ENDBRANCH   16   15
ENDBRANCH   17   16
ENDBRANCH   18   17
ENDBRANCH   19   18
ENDBRANCH   20   19
ENDBRANCH   21   20
ENDBRANCH   22   21
ENDBRANCH   24   22
ENDBRANCH   28   27
BRANCH   32   33
ATOM     33  C25 UNL A   1      24.244  56.278  -5.545  1.00  0.00    +0.000 C 
ATOM     34  C26 UNL A   1      24.156  56.750  -6.863  1.00  0.00    +0.000 C 
ATOM     35  F1  UNL A   1      23.035  57.348  -7.292  1.00  0.00    +0.000 F 
ATOM     36  C27 UNL A   1      25.206  56.571  -7.760  1.00  0.00    +0.000 C 
ATOM     37  F2  UNL A   1      25.080  56.984  -9.029  1.00  0.00    +0.000 F 
ATOM     38  C28 UNL A   1      26.375  55.949  -7.348  1.00  0.00    +0.000 C 
ATOM     39  F3  UNL A   1      27.386  55.780  -8.211  1.00  0.00    +0.000 F 
ATOM     40  C29 UNL A   1      26.494  55.496  -6.043  1.00  0.00    +0.000 C 
ATOM     41  F4  UNL A   1      27.627  54.905  -5.639  1.00  0.00    +0.000 F 
ATOM     42  C30 UNL A   1      25.435  55.649  -5.151  1.00  0.00    +0.000 C 
ATOM     43  F5  UNL A   1      25.572  55.184  -3.901  1.00  0.00    +0.000 F 
ENDBRANCH   32   33
BRANCH   49   50
ATOM     50  C36 UNL A   1      22.423  60.783  -0.220  1.00  0.00    +0.000 C 
ATOM     51  C37 UNL A   1      22.045  62.052  -0.681  1.00  0.00    +0.000 C 
ATOM     52  F6  UNL A   1      21.232  62.169  -1.743  1.00  0.00    +0.000 F 
ATOM     53  C38 UNL A   1      22.528  63.208  -0.074  1.00  0.00    +0.000 C 
ATOM     54  F7  UNL A   1      22.184  64.409  -0.557  1.00  0.00    +0.000 F 
ATOM     55  C39 UNL A   1      23.372  63.118   1.022  1.00  0.00    +0.000 C 
ATOM     56  F8  UNL A   1      23.832  64.231   1.610  1.00  0.00    +0.000 F 
ATOM     57  C40 UNL A   1      23.749  61.872   1.504  1.00  0.00    +0.000 C 
ATOM     58  F9  UNL A   1      24.558  61.784   2.568  1.00  0.00    +0.000 F 
ATOM     59  C41 UNL A   1      23.289  60.715   0.883  1.00  0.00    +0.000 C 
ATOM     60  F10 UNL A   1      23.677  59.525   1.364  1.00  0.00    +0.000 F 
ENDBRANCH   49   50
BRANCH   64   65
ATOM     65  C45 UNL A   1      16.924  56.745   1.202  1.00  0.00    +0.000 C 
ATOM     66  C46 UNL A   1      15.750  57.493   1.033  1.00  0.00    +0.000 C 
ATOM     67  F11 UNL A   1      15.586  58.238  -0.069  1.00  0.00    +0.000 F 
ATOM     68  C47 UNL A   1      14.755  57.498   2.008  1.00  0.00    +0.000 C 
ATOM     69  F12 UNL A   1      13.656  58.244   1.836  1.00  0.00    +0.000 F 
ATOM     70  C48 UNL A   1      14.904  56.738   3.159  1.00  0.00    +0.000 C 
ATOM     71  F13 UNL A   1      13.942  56.734   4.090  1.00  0.00    +0.000 F 
ATOM     72  C49 UNL A   1      16.054  55.985   3.344  1.00  0.00    +0.000 C 
ATOM     73  F14 UNL A   1      16.197  55.240   4.448  1.00  0.00    +0.000 F 
ATOM     74  C50 UNL A   1      17.061  55.997   2.381  1.00  0.00    +0.000 C 
ATOM     75  F15 UNL A   1      18.164  55.262   2.586  1.00  0.00    +0.000 F 
ENDBRANCH   64   65
TORSDOF 23
ENDMDL
MODEL 7
REMARK VINA RESULT:      -8.0      2.784      5.510
ROOT
ATOM    129  H31 UNL A   1      13.497  46.624   2.864  1.00  0.00    +0.000 H 
ATOM    130  H32 UNL A   1      15.172  46.811   0.936  1.00  0.00    +0.000 H 
ATOM    131  H33 UNL A   1      16.259  56.639   2.731  1.00  0.00    +0.000 H 
ATOM    132  H34 UNL A   1      14.956  56.382   4.921  1.00  0.00    +0.000 H 
ATOM     28  C21 UNL A   1      13.888  53.772   5.315  1.00  0.00    +0.000 C 
ATOM     29  C22 UNL A   1      14.801  54.233   4.216  1.00  0.00    +0.000 C 
ATOM     30  N5  UNL A   1      15.300  53.552   3.215  1.00  0.00    +0.000 N 
ATOM     31  C23 UNL A   1      16.031  54.464   2.465  1.00  0.00    +0.000 C 
ATOM     32  C24 UNL A   1      16.776  54.240   1.356  1.00  0.00    +0.000 C 
ATOM     44  C31 UNL A   1      16.958  52.948   0.749  1.00  0.00    +0.000 C 
ATOM     45  C32 UNL A   1      17.774  52.601  -0.315  1.00  0.00    +0.000 C 
ATOM     46  C33 UNL A   1      17.584  51.242  -0.588  1.00  0.00    +0.000 C 
ATOM     47  C34 UNL A   1      16.682  50.732   0.333  1.00  0.00    +0.000 C 
ATOM     48  N6  UNL A   1      16.310  51.788   1.149  1.00  0.00    +0.000 N 
ATOM     49  C35 UNL A   1      16.197  49.381   0.461  1.00  0.00    +0.000 C 
ATOM     61  C42 UNL A   1      15.341  48.952   1.421  1.00  0.00    +0.000 C 
ATOM     62  N7  UNL A   1      14.748  49.674   2.447  1.00  0.00    +0.000 N 
ATOM     63  C43 UNL A   1      13.995  48.823   3.099  1.00  0.00    +0.000 C 
ATOM     64  C44 UNL A   1      13.133  49.056   4.307  1.00  0.00    +0.000 C 
ATOM     76  C51 UNL A   1      13.127  50.269   4.891  1.00  0.00    +0.000 C 
ATOM     77  C52 UNL A   1      12.353  50.633   6.073  1.00  0.00    +0.000 C 
ATOM     78  C53 UNL A   1      12.547  51.934   6.340  1.00  0.00    +0.000 C 
ATOM     79  C54 UNL A   1      13.482  52.489   5.361  1.00  0.00    +0.000 C 
ATOM     80  N8  UNL A   1      13.790  51.423   4.552  1.00  0.00    +0.000 N 
ATOM     81  C55 UNL A   1      14.015  47.460   2.550  1.00  0.00    +0.000 C 
ATOM     82  C56 UNL A   1      14.874  47.587   1.548  1.00  0.00    +0.000 C 
ATOM     83  C57 UNL A   1      15.875  55.755   3.103  1.00  0.00    +0.000 C 
ATOM     84  C58 UNL A   1      15.177  55.655   4.224  1.00  0.00    +0.000 C 
ATOM    123  H25 UNL A   1      18.412  53.237  -0.819  1.00  0.00    +0.000 H 
ATOM    124  H26 UNL A   1      18.038  50.710  -1.346  1.00  0.00    +0.000 H 
ATOM    125  H27 UNL A   1      15.678  51.726   1.901  1.00  0.00    +0.000 H 
ATOM    126  H28 UNL A   1      11.753  49.993   6.617  1.00  0.00    +0.000 H 
ATOM    127  H29 UNL A   1      12.105  52.460   7.111  1.00  0.00    +0.000 H 
ATOM    128  H30 UNL A   1      14.424  51.481   3.801  1.00  0.00    +0.000 H 
ENDROOT
BRANCH   28   27
ATOM    122  H24 UNL A   1      11.600  55.224   5.214  1.00  0.00    +0.000 H 
ATOM    133  H35 UNL A   1      14.932  54.476   7.680  1.00  0.00    +0.000 H 
ATOM    134  H36 UNL A   1      14.068  56.044   9.313  1.00  0.00    +0.000 H 
ATOM     85  C59 UNL A   1      14.056  54.986   7.490  1.00  0.00    +0.000 C 
ATOM     86  C60 UNL A   1      13.581  55.914   8.412  1.00  0.00    +0.000 C 
ATOM     24  C17 UNL A   1      12.443  56.671   8.117  1.00  0.00    +0.000 C 
ATOM     25  C18 UNL A   1      11.709  56.409   6.956  1.00  0.00    +0.000 C 
ATOM     26  C19 UNL A   1      12.152  55.435   6.059  1.00  0.00    +0.000 C 
ATOM     27  C20 UNL A   1      13.349  54.740   6.303  1.00  0.00    +0.000 C 
ATOM    121  H23 UNL A   1      10.842  56.934   6.762  1.00  0.00    +0.000 H 
BRANCH   24   22
ATOM     22  C16 UNL A   1      11.977  57.739   9.027  1.00  0.00    +0.000 C 
ATOM     23  O3  UNL A   1      11.411  57.440  10.074  1.00  0.00    +0.000 O 
BRANCH   22   21
ATOM     21  N4  UNL A   1      12.164  59.058   8.698  1.00  0.00    +0.000 N 
ATOM    120  H22 UNL A   1      11.340  59.587   8.595  1.00  0.00    +0.000 H 
BRANCH   21   20
ATOM     20  C15 UNL A   1      13.402  59.791   8.478  1.00  0.00    +0.000 C 
ATOM    118  H20 UNL A   1      14.178  59.339   9.059  1.00  0.00    +0.000 H 
ATOM    119  H21 UNL A   1      13.625  59.751   7.433  1.00  0.00    +0.000 H 
BRANCH   20   19
ATOM     19  C14 UNL A   1      13.280  61.260   8.877  1.00  0.00    +0.000 C 
ATOM    116  H18 UNL A   1      13.677  61.854   8.080  1.00  0.00    +0.000 H 
ATOM    117  H19 UNL A   1      12.241  61.438   9.058  1.00  0.00    +0.000 H 
BRANCH   19   18
ATOM     18  C13 UNL A   1      14.015  61.638  10.165  1.00  0.00    +0.000 C 
ATOM    115  H17 UNL A   1      14.637  62.474   9.916  1.00  0.00    +0.000 H 
ATOM    114  H16 UNL A   1      14.563  60.781  10.497  1.00  0.00    +0.000 H 
BRANCH   18   17
ATOM     17  C12 UNL A   1      13.120  62.104  11.320  1.00  0.00    +0.000 C 
ATOM    113  H15 UNL A   1      12.657  63.011  10.989  1.00  0.00    +0.000 H 
ATOM    112  H14 UNL A   1      13.735  62.231  12.186  1.00  0.00    +0.000 H 
BRANCH   17   16
ATOM    110  H12 UNL A   1      11.130  61.383  11.070  1.00  0.00    +0.000 H 
ATOM    111  H13 UNL A   1      12.332  60.154  11.522  1.00  0.00    +0.000 H 
ATOM     16  C11 UNL A   1      11.975  61.149  11.684  1.00  0.00    +0.000 C 
BRANCH   16   15
ATOM    108  H10 UNL A   1      12.340  60.869  13.767  1.00  0.00    +0.000 H 
ATOM    109  H11 UNL A   1      11.340  62.265  13.376  1.00  0.00    +0.000 H 
ATOM     15  C10 UNL A   1      11.548  61.240  13.150  1.00  0.00    +0.000 C 
BRANCH   15   14
ATOM    107  H9  UNL A   1       9.577  60.966  13.744  1.00  0.00    +0.000 H 
ATOM     14  N3  UNL A   1      10.350  60.464  13.400  1.00  0.00    +0.000 N 
BRANCH   14   12
ATOM     12  C9  UNL A   1      10.157  59.121  13.220  1.00  0.00    +0.000 C 
ATOM     13  O2  UNL A   1       9.399  58.754  12.320  1.00  0.00    +0.000 O 
BRANCH   12   11
ATOM    105  H7  UNL A   1      11.873  58.055  13.914  1.00  0.00    +0.000 H 
ATOM    106  H8  UNL A   1      10.696  58.456  15.166  1.00  0.00    +0.000 H 
ATOM     11  C8  UNL A   1      10.833  58.116  14.161  1.00  0.00    +0.000 C 
BRANCH   11   10
ATOM     10  N2  UNL A   1      10.245  56.793  14.047  1.00  0.00    +0.000 N 
ATOM    104  H6  UNL A   1       9.367  56.653  14.469  1.00  0.00    +0.000 H 
BRANCH   10    9
ATOM      7  C6  UNL A   1      11.008  54.194  11.834  1.00  0.00    +0.000 C 
ATOM      8  N1  UNL A   1      10.218  55.200  12.362  1.00  0.00    +0.000 N 
ATOM      9  C7  UNL A   1      10.798  55.738  13.411  1.00  0.00    +0.000 C 
ATOM     87  S1  UNL A   1      12.305  55.011  13.837  1.00  0.00    +0.000 S 
ATOM     88  C61 UNL A   1      12.247  54.028  12.437  1.00  0.00    +0.000 C 
BRANCH    7    6
ATOM     97  C69 UNL A   1      10.331  52.042  10.810  1.00  0.00    +0.000 C 
ATOM     98  C70 UNL A   1       9.817  51.316   9.728  1.00  0.00    +0.000 C 
ATOM      3  C2  UNL A   1       9.553  51.960   8.517  1.00  0.00    +0.000 C 
ATOM      4  C3  UNL A   1       9.849  53.314   8.373  1.00  0.00    +0.000 C 
ATOM      5  C4  UNL A   1      10.350  54.041   9.452  1.00  0.00    +0.000 C 
ATOM    102  H4  UNL A   1       9.698  53.781   7.465  1.00  0.00    +0.000 H 
ATOM      6  C5  UNL A   1      10.572  53.414  10.686  1.00  0.00    +0.000 C 
ATOM    103  H5  UNL A   1      10.558  55.046   9.343  1.00  0.00    +0.000 H 
ATOM    142  H44 UNL A   1      10.534  51.562  11.701  1.00  0.00    +0.000 H 
ATOM    143  H45 UNL A   1       9.633  50.305   9.825  1.00  0.00    +0.000 H 
BRANCH    3    2
ATOM      2  O1  UNL A   1       9.057  51.344   7.401  1.00  0.00    +0.000 O 
BRANCH    2    1
ATOM      1  C1  UNL A   1       8.884  52.203   6.278  1.00  0.00    +0.000 C 
ATOM     99  H1  UNL A   1       7.841  52.291   6.054  1.00  0.00    +0.000 H 
ATOM    100  H2  UNL A   1       9.396  51.793   5.432  1.00  0.00    +0.000 H 
ATOM    101  H3  UNL A   1       9.284  53.169   6.503  1.00  0.00    +0.000 H 
ENDBRANCH    2    1
ENDBRANCH    3    2
ENDBRANCH    7    6
BRANCH   88   89
ATOM    135  H37 UNL A   1      13.297  53.636   9.969  1.00  0.00    +0.000 H 
ATOM    136  H38 UNL A   1      15.267  52.354   9.386  1.00  0.00    +0.000 H 
ATOM    140  H42 UNL A   1      15.807  51.302  13.413  1.00  0.00    +0.000 H 
ATOM    141  H43 UNL A   1      13.825  52.567  13.999  1.00  0.00    +0.000 H 
ATOM     89  C62 UNL A   1      13.407  53.228  12.038  1.00  0.00    +0.000 C 
ATOM     90  C63 UNL A   1      13.828  53.148  10.707  1.00  0.00    +0.000 C 
ATOM     91  C64 UNL A   1      14.969  52.409  10.372  1.00  0.00    +0.000 C 
ATOM     92  C65 UNL A   1      15.707  51.748  11.355  1.00  0.00    +0.000 C 
ATOM     95  C67 UNL A   1      15.280  51.802  12.679  1.00  0.00    +0.000 C 
ATOM     96  C68 UNL A   1      14.138  52.535  13.016  1.00  0.00    +0.000 C 
BRANCH   92   93
ATOM     93  O4  UNL A   1      16.813  51.084  10.901  1.00  0.00    +0.000 O 
BRANCH   93   94
ATOM    137  H39 UNL A   1      17.457  50.107   9.222  1.00  0.00    +0.000 H 
ATOM    138  H40 UNL A   1      15.737  50.404   9.298  1.00  0.00    +0.000 H 
ATOM    139  H41 UNL A   1      16.454  49.163  10.296  1.00  0.00    +0.000 H 
ATOM     94  C66 UNL A   1      16.602  50.131   9.865  1.00  0.00    +0.000 C 
ENDBRANCH   93   94
ENDBRANCH   92   93
ENDBRANCH   88   89
ENDBRANCH   10    9
ENDBRANCH   11   10
ENDBRANCH   12   11
ENDBRANCH   14   12
ENDBRANCH   15   14
ENDBRANCH   16   15
ENDBRANCH   17   16
ENDBRANCH   18   17
ENDBRANCH   19   18
ENDBRANCH   20   19
ENDBRANCH   21   20
ENDBRANCH   22   21
ENDBRANCH   24   22
ENDBRANCH   28   27
BRANCH   32   33
ATOM     33  C25 UNL A   1      17.451  55.423   0.724  1.00  0.00    +0.000 C 
ATOM     34  C26 UNL A   1      16.827  56.180  -0.278  1.00  0.00    +0.000 C 
ATOM     35  F1  UNL A   1      15.610  55.836  -0.726  1.00  0.00    +0.000 F 
ATOM     36  C27 UNL A   1      17.470  57.273  -0.855  1.00  0.00    +0.000 C 
ATOM     37  F2  UNL A   1      16.876  57.951  -1.847  1.00  0.00    +0.000 F 
ATOM     38  C28 UNL A   1      18.731  57.649  -0.417  1.00  0.00    +0.000 C 
ATOM     39  F3  UNL A   1      19.348  58.702  -0.972  1.00  0.00    +0.000 F 
ATOM     40  C29 UNL A   1      19.356  56.930   0.589  1.00  0.00    +0.000 C 
ATOM     41  F4  UNL A   1      20.571  57.298   1.021  1.00  0.00    +0.000 F 
ATOM     42  C30 UNL A   1      18.727  55.820   1.149  1.00  0.00    +0.000 C 
ATOM     43  F5  UNL A   1      19.366  55.133   2.107  1.00  0.00    +0.000 F 
ENDBRANCH   32   33
BRANCH   49   50
ATOM     50  C36 UNL A   1      16.681  48.365  -0.529  1.00  0.00    +0.000 C 
ATOM     51  C37 UNL A   1      15.896  47.982  -1.627  1.00  0.00    +0.000 C 
ATOM     52  F6  UNL A   1      14.661  48.486  -1.782  1.00  0.00    +0.000 F 
ATOM     53  C38 UNL A   1      16.364  47.053  -2.551  1.00  0.00    +0.000 C 
ATOM     54  F7  UNL A   1      15.580  46.672  -3.569  1.00  0.00    +0.000 F 
ATOM     55  C39 UNL A   1      17.633  46.512  -2.414  1.00  0.00    +0.000 C 
ATOM     56  F8  UNL A   1      18.084  45.622  -3.308  1.00  0.00    +0.000 F 
ATOM     57  C40 UNL A   1      18.432  46.887  -1.343  1.00  0.00    +0.000 C 
ATOM     58  F9  UNL A   1      19.662  46.372  -1.215  1.00  0.00    +0.000 F 
ATOM     59  C41 UNL A   1      17.957  47.797  -0.403  1.00  0.00    +0.000 C 
ATOM     60  F10 UNL A   1      18.748  48.133   0.627  1.00  0.00    +0.000 F 
ENDBRANCH   49   50
BRANCH   64   65
ATOM     65  C45 UNL A   1      12.306  47.967   4.881  1.00  0.00    +0.000 C 
ATOM     66  C46 UNL A   1      11.036  47.679   4.365  1.00  0.00    +0.000 C 
ATOM     67  F11 UNL A   1      10.534  48.425   3.370  1.00  0.00    +0.000 F 
ATOM     68  C47 UNL A   1      10.266  46.641   4.887  1.00  0.00    +0.000 C 
ATOM     69  F12 UNL A   1       9.043  46.405   4.395  1.00  0.00    +0.000 F 
ATOM     70  C48 UNL A   1      10.762  45.858   5.918  1.00  0.00    +0.000 C 
ATOM     71  F13 UNL A   1      10.027  44.853   6.412  1.00  0.00    +0.000 F 
ATOM     72  C49 UNL A   1      12.021  46.120   6.440  1.00  0.00    +0.000 C 
ATOM     73  F14 UNL A   1      12.509  45.358   7.428  1.00  0.00    +0.000 F 
ATOM     74  C50 UNL A   1      12.781  47.172   5.935  1.00  0.00    +0.000 C 
ATOM     75  F15 UNL A   1      13.994  47.406   6.460  1.00  0.00    +0.000 F 
ENDBRANCH   64   65
TORSDOF 23
ENDMDL
MODEL 8
REMARK VINA RESULT:      -7.9      4.828     10.710
ROOT
ATOM    129  H31 UNL A   1      18.335  58.812   1.909  1.00  0.00    +0.000 H 
ATOM    130  H32 UNL A   1      20.317  60.297   1.256  1.00  0.00    +0.000 H 
ATOM    131  H33 UNL A   1      22.713  53.963  -6.169  1.00  0.00    +0.000 H 
ATOM    132  H34 UNL A   1      20.497  52.725  -5.827  1.00  0.00    +0.000 H 
ATOM     28  C21 UNL A   1      18.997  53.663  -3.596  1.00  0.00    +0.000 C 
ATOM     29  C22 UNL A   1      20.266  54.240  -4.156  1.00  0.00    +0.000 C 
ATOM     30  N5  UNL A   1      20.950  55.281  -3.753  1.00  0.00    +0.000 N 
ATOM     31  C23 UNL A   1      22.065  55.343  -4.580  1.00  0.00    +0.000 C 
ATOM     32  C24 UNL A   1      23.052  56.270  -4.596  1.00  0.00    +0.000 C 
ATOM     44  C31 UNL A   1      23.105  57.415  -3.725  1.00  0.00    +0.000 C 
ATOM     45  C32 UNL A   1      24.009  58.464  -3.732  1.00  0.00    +0.000 C 
ATOM     46  C33 UNL A   1      23.696  59.317  -2.668  1.00  0.00    +0.000 C 
ATOM     47  C34 UNL A   1      22.572  58.824  -2.025  1.00  0.00    +0.000 C 
ATOM     48  N6  UNL A   1      22.218  57.659  -2.686  1.00  0.00    +0.000 N 
ATOM     49  C35 UNL A   1      21.871  59.374  -0.892  1.00  0.00    +0.000 C 
ATOM     61  C42 UNL A   1      20.747  58.848  -0.346  1.00  0.00    +0.000 C 
ATOM     62  N7  UNL A   1      20.048  57.708  -0.715  1.00  0.00    +0.000 N 
ATOM     63  C43 UNL A   1      19.046  57.612   0.123  1.00  0.00    +0.000 C 
ATOM     64  C44 UNL A   1      17.961  56.574   0.183  1.00  0.00    +0.000 C 
ATOM     76  C51 UNL A   1      17.914  55.611  -0.757  1.00  0.00    +0.000 C 
ATOM     77  C52 UNL A   1      16.912  54.552  -0.831  1.00  0.00    +0.000 C 
ATOM     78  C53 UNL A   1      17.208  53.742  -1.859  1.00  0.00    +0.000 C 
ATOM     79  C54 UNL A   1      18.406  54.243  -2.534  1.00  0.00    +0.000 C 
ATOM     80  N8  UNL A   1      18.744  55.367  -1.823  1.00  0.00    +0.000 N 
ATOM     81  C55 UNL A   1      19.003  58.678   1.133  1.00  0.00    +0.000 C 
ATOM     82  C56 UNL A   1      20.043  59.421   0.783  1.00  0.00    +0.000 C 
ATOM     83  C57 UNL A   1      21.986  54.211  -5.479  1.00  0.00    +0.000 C 
ATOM     84  C58 UNL A   1      20.861  53.534  -5.301  1.00  0.00    +0.000 C 
ATOM    123  H25 UNL A   1      24.780  58.593  -4.405  1.00  0.00    +0.000 H 
ATOM    124  H26 UNL A   1      24.215  60.170  -2.407  1.00  0.00    +0.000 H 
ATOM    125  H27 UNL A   1      21.450  57.088  -2.454  1.00  0.00    +0.000 H 
ATOM    126  H28 UNL A   1      16.107  54.443  -0.195  1.00  0.00    +0.000 H 
ATOM    127  H29 UNL A   1      16.676  52.899  -2.130  1.00  0.00    +0.000 H 
ATOM    128  H30 UNL A   1      19.509  55.942  -2.055  1.00  0.00    +0.000 H 
ENDROOT
BRANCH   28   27
ATOM    122  H24 UNL A   1      17.279  53.313  -5.663  1.00  0.00    +0.000 H 
ATOM    133  H35 UNL A   1      19.485  51.153  -2.798  1.00  0.00    +0.000 H 
ATOM    134  H36 UNL A   1      18.591  49.080  -3.681  1.00  0.00    +0.000 H 
ATOM     85  C59 UNL A   1      18.807  51.175  -3.576  1.00  0.00    +0.000 C 
ATOM     86  C60 UNL A   1      18.266  49.985  -4.056  1.00  0.00    +0.000 C 
ATOM     24  C17 UNL A   1      17.281  50.019  -5.049  1.00  0.00    +0.000 C 
ATOM     25  C18 UNL A   1      16.931  51.232  -5.647  1.00  0.00    +0.000 C 
ATOM     26  C19 UNL A   1      17.519  52.420  -5.207  1.00  0.00    +0.000 C 
ATOM     27  C20 UNL A   1      18.436  52.403  -4.143  1.00  0.00    +0.000 C 
ATOM    121  H23 UNL A   1      16.240  51.251  -6.413  1.00  0.00    +0.000 H 
BRANCH   24   22
ATOM     22  C16 UNL A   1      16.611  48.781  -5.502  1.00  0.00    +0.000 C 
ATOM     23  O3  UNL A   1      16.392  48.612  -6.698  1.00  0.00    +0.000 O 
BRANCH   22   21
ATOM     21  N4  UNL A   1      16.222  47.832  -4.590  1.00  0.00    +0.000 N 
ATOM    120  H22 UNL A   1      16.895  47.141  -4.391  1.00  0.00    +0.000 H 
BRANCH   21   20
ATOM     20  C15 UNL A   1      14.962  47.695  -3.876  1.00  0.00    +0.000 C 
ATOM    118  H20 UNL A   1      14.319  48.503  -4.154  1.00  0.00    +0.000 H 
ATOM    119  H21 UNL A   1      14.536  46.750  -4.140  1.00  0.00    +0.000 H 
BRANCH   20   19
ATOM     19  C14 UNL A   1      15.153  47.717  -2.362  1.00  0.00    +0.000 C 
ATOM    116  H18 UNL A   1      14.492  46.993  -1.933  1.00  0.00    +0.000 H 
ATOM    117  H19 UNL A   1      16.185  47.502  -2.185  1.00  0.00    +0.000 H 
BRANCH   19   18
ATOM     18  C13 UNL A   1      14.872  49.068  -1.699  1.00  0.00    +0.000 C 
ATOM    115  H17 UNL A   1      14.253  48.859  -0.851  1.00  0.00    +0.000 H 
ATOM    114  H16 UNL A   1      14.406  49.702  -2.424  1.00  0.00    +0.000 H 
BRANCH   18   17
ATOM     17  C12 UNL A   1      16.105  49.800  -1.154  1.00  0.00    +0.000 C 
ATOM    113  H15 UNL A   1      15.780  50.314  -0.273  1.00  0.00    +0.000 H 
ATOM    112  H14 UNL A   1      16.468  50.455  -1.919  1.00  0.00    +0.000 H 
BRANCH   17   16
ATOM    110  H12 UNL A   1      16.890  48.192   0.003  1.00  0.00    +0.000 H 
ATOM    111  H13 UNL A   1      17.635  48.413  -1.596  1.00  0.00    +0.000 H 
ATOM     16  C11 UNL A   1      17.263  48.893  -0.716  1.00  0.00    +0.000 C 
BRANCH   16   15
ATOM    108  H10 UNL A   1      19.008  48.977   0.506  1.00  0.00    +0.000 H 
ATOM    109  H11 UNL A   1      19.026  50.067  -0.877  1.00  0.00    +0.000 H 
ATOM     15  C10 UNL A   1      18.431  49.655  -0.089  1.00  0.00    +0.000 C 
BRANCH   15   14
ATOM    107  H9  UNL A   1      17.673  51.553   0.278  1.00  0.00    +0.000 H 
ATOM     14  N3  UNL A   1      17.964  50.741   0.750  1.00  0.00    +0.000 N 
BRANCH   14   12
ATOM     12  C9  UNL A   1      17.877  50.780   2.115  1.00  0.00    +0.000 C 
ATOM     13  O2  UNL A   1      17.388  51.782   2.642  1.00  0.00    +0.000 O 
BRANCH   12   11
ATOM    105  H7  UNL A   1      19.274  49.199   2.447  1.00  0.00    +0.000 H 
ATOM    106  H8  UNL A   1      18.708  50.004   3.911  1.00  0.00    +0.000 H 
ATOM     11  C8  UNL A   1      18.430  49.620   2.952  1.00  0.00    +0.000 C 
BRANCH   11   10
ATOM     10  N2  UNL A   1      17.436  48.580   3.153  1.00  0.00    +0.000 N 
ATOM    104  H6  UNL A   1      17.291  47.947   2.412  1.00  0.00    +0.000 H 
BRANCH   10    9
ATOM      7  C6  UNL A   1      15.941  48.852   6.303  1.00  0.00    +0.000 C 
ATOM      8  N1  UNL A   1      16.869  49.161   5.324  1.00  0.00    +0.000 N 
ATOM      9  C7  UNL A   1      16.693  48.404   4.266  1.00  0.00    +0.000 C 
ATOM     87  S1  UNL A   1      15.425  47.243   4.429  1.00  0.00    +0.000 S 
ATOM     88  C61 UNL A   1      14.989  47.908   5.945  1.00  0.00    +0.000 C 
BRANCH    7    6
ATOM     97  C69 UNL A   1      16.560  48.933   8.700  1.00  0.00    +0.000 C 
ATOM     98  C70 UNL A   1      16.650  49.629   9.912  1.00  0.00    +0.000 C 
ATOM      3  C2  UNL A   1      16.117  50.916  10.020  1.00  0.00    +0.000 C 
ATOM      4  C3  UNL A   1      15.452  51.484   8.935  1.00  0.00    +0.000 C 
ATOM      5  C4  UNL A   1      15.372  50.798   7.724  1.00  0.00    +0.000 C 
ATOM    102  H4  UNL A   1      15.018  52.416   9.028  1.00  0.00    +0.000 H 
ATOM      6  C5  UNL A   1      15.947  49.526   7.592  1.00  0.00    +0.000 C 
ATOM    103  H5  UNL A   1      14.888  51.228   6.920  1.00  0.00    +0.000 H 
ATOM    142  H44 UNL A   1      16.946  47.979   8.625  1.00  0.00    +0.000 H 
ATOM    143  H45 UNL A   1      17.110  49.192  10.726  1.00  0.00    +0.000 H 
BRANCH    3    2
ATOM      2  O1  UNL A   1      16.146  51.676  11.156  1.00  0.00    +0.000 O 
BRANCH    2    1
ATOM      1  C1  UNL A   1      15.769  50.985  12.342  1.00  0.00    +0.000 C 
ATOM     99  H1  UNL A   1      15.458  51.691  13.083  1.00  0.00    +0.000 H 
ATOM    100  H2  UNL A   1      16.605  50.427  12.712  1.00  0.00    +0.000 H 
ATOM    101  H3  UNL A   1      14.963  50.316  12.124  1.00  0.00    +0.000 H 
ENDBRANCH    2    1
ENDBRANCH    3    2
ENDBRANCH    7    6
BRANCH   88   89
ATOM    135  H37 UNL A   1      12.407  48.330   5.235  1.00  0.00    +0.000 H 
ATOM    136  H38 UNL A   1      10.414  47.538   6.362  1.00  0.00    +0.000 H 
ATOM    140  H42 UNL A   1      12.774  45.737   9.328  1.00  0.00    +0.000 H 
ATOM    141  H43 UNL A   1      14.770  46.544   8.217  1.00  0.00    +0.000 H 
ATOM     89  C62 UNL A   1      13.759  47.485   6.619  1.00  0.00    +0.000 C 
ATOM     90  C63 UNL A   1      12.493  47.775   6.101  1.00  0.00    +0.000 C 
ATOM     91  C64 UNL A   1      11.343  47.314   6.751  1.00  0.00    +0.000 C 
ATOM     92  C65 UNL A   1      11.436  46.555   7.919  1.00  0.00    +0.000 C 
ATOM     95  C67 UNL A   1      12.692  46.282   8.455  1.00  0.00    +0.000 C 
ATOM     96  C68 UNL A   1      13.842  46.747   7.811  1.00  0.00    +0.000 C 
BRANCH   92   93
ATOM     93  O4  UNL A   1      10.241  46.145   8.441  1.00  0.00    +0.000 O 
BRANCH   93   94
ATOM    137  H39 UNL A   1       8.867  44.689   8.010  1.00  0.00    +0.000 H 
ATOM    138  H40 UNL A   1       9.855  45.205   6.664  1.00  0.00    +0.000 H 
ATOM    139  H41 UNL A   1       8.576  46.238   7.255  1.00  0.00    +0.000 H 
ATOM     94  C66 UNL A   1       9.328  45.531   7.536  1.00  0.00    +0.000 C 
ENDBRANCH   93   94
ENDBRANCH   92   93
ENDBRANCH   88   89
ENDBRANCH   10    9
ENDBRANCH   11   10
ENDBRANCH   12   11
ENDBRANCH   14   12
ENDBRANCH   15   14
ENDBRANCH   16   15
ENDBRANCH   17   16
ENDBRANCH   18   17
ENDBRANCH   19   18
ENDBRANCH   20   19
ENDBRANCH   21   20
ENDBRANCH   22   21
ENDBRANCH   24   22
ENDBRANCH   28   27
BRANCH   32   33
ATOM     33  C25 UNL A   1      24.162  56.082  -5.589  1.00  0.00    +0.000 C 
ATOM     34  C26 UNL A   1      25.338  55.391  -5.260  1.00  0.00    +0.000 C 
ATOM     35  F1  UNL A   1      25.513  54.908  -4.021  1.00  0.00    +0.000 F 
ATOM     36  C27 UNL A   1      26.358  55.229  -6.194  1.00  0.00    +0.000 C 
ATOM     37  F2  UNL A   1      27.494  54.610  -5.843  1.00  0.00    +0.000 F 
ATOM     38  C28 UNL A   1      26.209  55.723  -7.481  1.00  0.00    +0.000 C 
ATOM     39  F3  UNL A   1      27.191  55.565  -8.380  1.00  0.00    +0.000 F 
ATOM     40  C29 UNL A   1      25.045  56.388  -7.835  1.00  0.00    +0.000 C 
ATOM     41  F4  UNL A   1      24.894  56.857  -9.082  1.00  0.00    +0.000 F 
ATOM     42  C30 UNL A   1      24.034  56.576  -6.896  1.00  0.00    +0.000 C 
ATOM     43  F5  UNL A   1      22.928  57.240  -7.263  1.00  0.00    +0.000 F 
ENDBRANCH   32   33
BRANCH   49   50
ATOM     50  C36 UNL A   1      22.410  60.630  -0.277  1.00  0.00    +0.000 C 
ATOM     51  C37 UNL A   1      23.314  60.588   0.795  1.00  0.00    +0.000 C 
ATOM     52  F6  UNL A   1      23.675  59.411   1.328  1.00  0.00    +0.000 F 
ATOM     53  C38 UNL A   1      23.824  61.760   1.346  1.00  0.00    +0.000 C 
ATOM     54  F7  UNL A   1      24.655  61.698   2.396  1.00  0.00    +0.000 F 
ATOM     55  C39 UNL A   1      23.464  62.992   0.820  1.00  0.00    +0.000 C 
ATOM     56  F8  UNL A   1      23.961  64.119   1.347  1.00  0.00    +0.000 F 
ATOM     57  C40 UNL A   1      22.582  63.055  -0.249  1.00  0.00    +0.000 C 
ATOM     58  F9  UNL A   1      22.241  64.244  -0.765  1.00  0.00    +0.000 F 
ATOM     59  C41 UNL A   1      22.051  61.887  -0.786  1.00  0.00    +0.000 C 
ATOM     60  F10 UNL A   1      21.193  61.979  -1.813  1.00  0.00    +0.000 F 
ENDBRANCH   49   50
BRANCH   64   65
ATOM     65  C45 UNL A   1      16.927  56.606   1.246  1.00  0.00    +0.000 C 
ATOM     66  C46 UNL A   1      17.081  55.860   2.423  1.00  0.00    +0.000 C 
ATOM     67  F11 UNL A   1      18.152  55.067   2.575  1.00  0.00    +0.000 F 
ATOM     68  C47 UNL A   1      16.123  55.906   3.433  1.00  0.00    +0.000 C 
ATOM     69  F12 UNL A   1      16.280  55.161   4.535  1.00  0.00    +0.000 F 
ATOM     70  C48 UNL A   1      15.006  56.716   3.297  1.00  0.00    +0.000 C 
ATOM     71  F13 UNL A   1      14.092  56.769   4.274  1.00  0.00    +0.000 F 
ATOM     72  C49 UNL A   1      14.837  57.469   2.144  1.00  0.00    +0.000 C 
ATOM     73  F14 UNL A   1      13.765  58.262   2.013  1.00  0.00    +0.000 F 
ATOM     74  C50 UNL A   1      15.782  57.406   1.122  1.00  0.00    +0.000 C 
ATOM     75  F15 UNL A   1      15.592  58.142   0.017  1.00  0.00    +0.000 F 
ENDBRANCH   64   65
TORSDOF 23
ENDMDL
MODEL 9
REMARK VINA RESULT:      -7.9     33.691     38.729
ROOT
ATOM    129  H31 UNL A   1      49.985  57.324  16.328  1.00  0.00    +0.000 H 
ATOM    130  H32 UNL A   1      51.970  57.128  17.933  1.00  0.00    +0.000 H 
ATOM    131  H33 UNL A   1      48.401  48.396  21.399  1.00  0.00    +0.000 H 
ATOM    132  H34 UNL A   1      46.679  48.349  19.504  1.00  0.00    +0.000 H 
ATOM     28  C21 UNL A   1      46.676  50.705  17.904  1.00  0.00    +0.000 C 
ATOM     29  C22 UNL A   1      47.631  50.345  19.007  1.00  0.00    +0.000 C 
ATOM     30  N5  UNL A   1      48.654  51.020  19.467  1.00  0.00    +0.000 N 
ATOM     31  C23 UNL A   1      49.159  50.268  20.520  1.00  0.00    +0.000 C 
ATOM     32  C24 UNL A   1      50.246  50.516  21.289  1.00  0.00    +0.000 C 
ATOM     44  C31 UNL A   1      51.114  51.653  21.124  1.00  0.00    +0.000 C 
ATOM     45  C32 UNL A   1      52.296  51.940  21.786  1.00  0.00    +0.000 C 
ATOM     46  C33 UNL A   1      52.763  53.177  21.331  1.00  0.00    +0.000 C 
ATOM     47  C34 UNL A   1      51.896  53.641  20.355  1.00  0.00    +0.000 C 
ATOM     48  N6  UNL A   1      50.891  52.695  20.235  1.00  0.00    +0.000 N 
ATOM     49  C35 UNL A   1      51.977  54.858  19.586  1.00  0.00    +0.000 C 
ATOM     61  C42 UNL A   1      51.104  55.221  18.614  1.00  0.00    +0.000 C 
ATOM     62  N7  UNL A   1      49.976  54.552  18.161  1.00  0.00    +0.000 N 
ATOM     63  C43 UNL A   1      49.459  55.310  17.225  1.00  0.00    +0.000 C 
ATOM     64  C44 UNL A   1      48.237  55.073  16.385  1.00  0.00    +0.000 C 
ATOM     76  C51 UNL A   1      47.559  53.917  16.515  1.00  0.00    +0.000 C 
ATOM     77  C52 UNL A   1      46.367  53.547  15.757  1.00  0.00    +0.000 C 
ATOM     78  C53 UNL A   1      45.928  52.354  16.188  1.00  0.00    +0.000 C 
ATOM     79  C54 UNL A   1      46.826  51.863  17.234  1.00  0.00    +0.000 C 
ATOM     80  N8  UNL A   1      47.776  52.847  17.348  1.00  0.00    +0.000 N 
ATOM     81  C55 UNL A   1      50.198  56.558  16.986  1.00  0.00    +0.000 C 
ATOM     82  C56 UNL A   1      51.208  56.439  17.837  1.00  0.00    +0.000 C 
ATOM     83  C57 UNL A   1      48.305  49.107  20.656  1.00  0.00    +0.000 C 
ATOM     84  C58 UNL A   1      47.384  49.074  19.704  1.00  0.00    +0.000 C 
ATOM    123  H25 UNL A   1      52.753  51.343  22.493  1.00  0.00    +0.000 H 
ATOM    124  H26 UNL A   1      53.610  53.662  21.666  1.00  0.00    +0.000 H 
ATOM    125  H27 UNL A   1      50.131  52.752  19.612  1.00  0.00    +0.000 H 
ATOM    126  H28 UNL A   1      45.932  54.112  15.011  1.00  0.00    +0.000 H 
ATOM    127  H29 UNL A   1      45.091  51.862  15.838  1.00  0.00    +0.000 H 
ATOM    128  H30 UNL A   1      48.539  52.791  17.967  1.00  0.00    +0.000 H 
ENDROOT
BRANCH   28   27
ATOM    122  H24 UNL A   1      46.579  48.397  16.484  1.00  0.00    +0.000 H 
ATOM    133  H35 UNL A   1      44.135  51.024  18.691  1.00  0.00    +0.000 H 
ATOM    134  H36 UNL A   1      42.216  49.618  18.227  1.00  0.00    +0.000 H 
ATOM     85  C59 UNL A   1      44.243  50.183  18.103  1.00  0.00    +0.000 C 
ATOM     86  C60 UNL A   1      43.133  49.398  17.806  1.00  0.00    +0.000 C 
ATOM     24  C17 UNL A   1      43.260  48.311  16.936  1.00  0.00    +0.000 C 
ATOM     25  C18 UNL A   1      44.521  47.934  16.465  1.00  0.00    +0.000 C 
ATOM     26  C19 UNL A   1      45.645  48.686  16.812  1.00  0.00    +0.000 C 
ATOM     27  C20 UNL A   1      45.509  49.838  17.606  1.00  0.00    +0.000 C 
ATOM    121  H23 UNL A   1      44.622  47.103  15.863  1.00  0.00    +0.000 H 
BRANCH   24   22
ATOM     22  C16 UNL A   1      42.080  47.525  16.517  1.00  0.00    +0.000 C 
ATOM     23  O3  UNL A   1      41.208  48.055  15.835  1.00  0.00    +0.000 O 
BRANCH   22   21
ATOM     21  N4  UNL A   1      41.951  46.213  16.899  1.00  0.00    +0.000 N 
ATOM    120  H22 UNL A   1      42.319  45.553  16.267  1.00  0.00    +0.000 H 
BRANCH   21   20
ATOM     20  C15 UNL A   1      41.351  45.653  18.100  1.00  0.00    +0.000 C 
ATOM    118  H20 UNL A   1      41.979  45.877  18.936  1.00  0.00    +0.000 H 
ATOM    119  H21 UNL A   1      40.380  46.088  18.215  1.00  0.00    +0.000 H 
BRANCH   20   19
ATOM     19  C14 UNL A   1      41.178  44.139  18.006  1.00  0.00    +0.000 C 
ATOM    116  H18 UNL A   1      40.162  43.906  18.246  1.00  0.00    +0.000 H 
ATOM    117  H19 UNL A   1      41.448  43.866  17.008  1.00  0.00    +0.000 H 
BRANCH   19   18
ATOM     18  C13 UNL A   1      42.085  43.331  18.936  1.00  0.00    +0.000 C 
ATOM    115  H17 UNL A   1      43.035  43.823  18.925  1.00  0.00    +0.000 H 
ATOM    114  H16 UNL A   1      42.120  42.325  18.573  1.00  0.00    +0.000 H 
BRANCH   18   17
ATOM     17  C12 UNL A   1      41.647  43.288  20.406  1.00  0.00    +0.000 C 
ATOM    113  H15 UNL A   1      40.690  42.808  20.417  1.00  0.00    +0.000 H 
ATOM    112  H14 UNL A   1      41.624  44.292  20.775  1.00  0.00    +0.000 H 
BRANCH   17   16
ATOM    110  H12 UNL A   1      42.396  42.792  22.338  1.00  0.00    +0.000 H 
ATOM    111  H13 UNL A   1      42.282  41.434  21.197  1.00  0.00    +0.000 H 
ATOM     16  C11 UNL A   1      42.549  42.461  21.332  1.00  0.00    +0.000 C 
BRANCH   16   15
ATOM    108  H10 UNL A   1      44.510  41.640  21.168  1.00  0.00    +0.000 H 
ATOM    109  H11 UNL A   1      44.133  42.883  19.980  1.00  0.00    +0.000 H 
ATOM     15  C10 UNL A   1      44.038  42.586  21.003  1.00  0.00    +0.000 C 
BRANCH   15   14
ATOM    107  H9  UNL A   1      44.841  43.328  22.769  1.00  0.00    +0.000 H 
ATOM     14  N3  UNL A   1      44.680  43.586  21.833  1.00  0.00    +0.000 N 
BRANCH   14   12
ATOM     12  C9  UNL A   1      45.090  44.843  21.481  1.00  0.00    +0.000 C 
ATOM     13  O2  UNL A   1      44.683  45.315  20.417  1.00  0.00    +0.000 O 
BRANCH   12   11
ATOM    105  H7  UNL A   1      46.175  46.607  22.006  1.00  0.00    +0.000 H 
ATOM    106  H8  UNL A   1      45.693  45.601  23.373  1.00  0.00    +0.000 H 
ATOM     11  C8  UNL A   1      46.076  45.606  22.374  1.00  0.00    +0.000 C 
BRANCH   11   10
ATOM     10  N2  UNL A   1      47.386  44.979  22.387  1.00  0.00    +0.000 N 
ATOM    104  H6  UNL A   1      47.670  44.550  23.227  1.00  0.00    +0.000 H 
BRANCH   10    9
ATOM      7  C6  UNL A   1      49.103  45.507  19.387  1.00  0.00    +0.000 C 
ATOM      8  N1  UNL A   1      48.050  45.657  20.272  1.00  0.00    +0.000 N 
ATOM      9  C7  UNL A   1      48.247  44.932  21.350  1.00  0.00    +0.000 C 
ATOM     87  S1  UNL A   1      49.695  43.992  21.315  1.00  0.00    +0.000 S 
ATOM     88  C61 UNL A   1      50.157  44.727  19.840  1.00  0.00    +0.000 C 
BRANCH    7    6
ATOM     97  C69 UNL A   1      49.883  47.325  17.895  1.00  0.00    +0.000 C 
ATOM     98  C70 UNL A   1      49.961  47.909  16.624  1.00  0.00    +0.000 C 
ATOM      3  C2  UNL A   1      49.254  47.353  15.555  1.00  0.00    +0.000 C 
ATOM      4  C3  UNL A   1      48.434  46.247  15.767  1.00  0.00    +0.000 C 
ATOM      5  C4  UNL A   1      48.364  45.656  17.029  1.00  0.00    +0.000 C 
ATOM    102  H4  UNL A   1      47.875  45.863  14.988  1.00  0.00    +0.000 H 
ATOM      6  C5  UNL A   1      49.107  46.178  18.096  1.00  0.00    +0.000 C 
ATOM    103  H5  UNL A   1      47.762  44.831  17.177  1.00  0.00    +0.000 H 
ATOM    142  H44 UNL A   1      50.399  47.742  18.685  1.00  0.00    +0.000 H 
ATOM    143  H45 UNL A   1      50.541  48.750  16.477  1.00  0.00    +0.000 H 
BRANCH    3    2
ATOM      2  O1  UNL A   1      49.258  47.847  14.281  1.00  0.00    +0.000 O 
BRANCH    2    1
ATOM      1  C1  UNL A   1      50.547  48.196  13.784  1.00  0.00    +0.000 C 
ATOM     99  H1  UNL A   1      51.179  47.334  13.797  1.00  0.00    +0.000 H 
ATOM    100  H2  UNL A   1      50.973  48.959  14.403  1.00  0.00    +0.000 H 
ATOM    101  H3  UNL A   1      50.456  48.560  12.782  1.00  0.00    +0.000 H 
ENDBRANCH    2    1
ENDBRANCH    3    2
ENDBRANCH    7    6
BRANCH   88   89
ATOM    135  H37 UNL A   1      52.551  45.632  20.732  1.00  0.00    +0.000 H 
ATOM    136  H38 UNL A   1      54.743  45.179  19.806  1.00  0.00    +0.000 H 
ATOM    140  H42 UNL A   1      53.007  42.888  16.749  1.00  0.00    +0.000 H 
ATOM    141  H43 UNL A   1      50.811  43.355  17.659  1.00  0.00    +0.000 H 
ATOM     89  C62 UNL A   1      51.496  44.513  19.286  1.00  0.00    +0.000 C 
ATOM     90  C63 UNL A   1      52.641  45.043  19.890  1.00  0.00    +0.000 C 
ATOM     91  C64 UNL A   1      53.907  44.778  19.355  1.00  0.00    +0.000 C 
ATOM     92  C65 UNL A   1      54.051  43.978  18.220  1.00  0.00    +0.000 C 
ATOM     95  C67 UNL A   1      52.915  43.466  17.599  1.00  0.00    +0.000 C 
ATOM     96  C68 UNL A   1      51.649  43.734  18.127  1.00  0.00    +0.000 C 
BRANCH   92   93
ATOM     93  O4  UNL A   1      55.341  43.775  17.815  1.00  0.00    +0.000 O 
BRANCH   93   94
ATOM    137  H39 UNL A   1      56.100  42.151  18.804  1.00  0.00    +0.000 H 
ATOM    138  H40 UNL A   1      56.018  43.623  19.740  1.00  0.00    +0.000 H 
ATOM    139  H41 UNL A   1      57.239  43.441  18.504  1.00  0.00    +0.000 H 
ATOM     94  C66 UNL A   1      56.229  43.213  18.776  1.00  0.00    +0.000 C 
ENDBRANCH   93   94
ENDBRANCH   92   93
ENDBRANCH   88   89
ENDBRANCH   10    9
ENDBRANCH   11   10
ENDBRANCH   12   11
ENDBRANCH   14   12
ENDBRANCH   15   14
ENDBRANCH   16   15
ENDBRANCH   17   16
ENDBRANCH   18   17
ENDBRANCH   19   18
ENDBRANCH   20   19
ENDBRANCH   21   20
ENDBRANCH   22   21
ENDBRANCH   24   22
ENDBRANCH   28   27
BRANCH   32   33
ATOM     33  C25 UNL A   1      50.557  49.539  22.385  1.00  0.00    +0.000 C 
ATOM     34  C26 UNL A   1      51.274  48.359  22.140  1.00  0.00    +0.000 C 
ATOM     35  F1  UNL A   1      51.672  48.056  20.895  1.00  0.00    +0.000 F 
ATOM     36  C27 UNL A   1      51.550  47.462  23.169  1.00  0.00    +0.000 C 
ATOM     37  F2  UNL A   1      52.192  46.316  22.903  1.00  0.00    +0.000 F 
ATOM     38  C28 UNL A   1      51.146  47.744  24.465  1.00  0.00    +0.000 C 
ATOM     39  F3  UNL A   1      51.414  46.881  25.455  1.00  0.00    +0.000 F 
ATOM     40  C29 UNL A   1      50.456  48.916  24.735  1.00  0.00    +0.000 C 
ATOM     41  F4  UNL A   1      50.074  49.195  25.989  1.00  0.00    +0.000 F 
ATOM     42  C30 UNL A   1      50.155  49.801  23.703  1.00  0.00    +0.000 C 
ATOM     43  F5  UNL A   1      49.470  50.918  23.992  1.00  0.00    +0.000 F 
ENDBRANCH   32   33
BRANCH   49   50
ATOM     50  C36 UNL A   1      53.118  55.789  19.866  1.00  0.00    +0.000 C 
ATOM     51  C37 UNL A   1      54.333  55.685  19.173  1.00  0.00    +0.000 C 
ATOM     52  F6  UNL A   1      54.516  54.704  18.275  1.00  0.00    +0.000 F 
ATOM     53  C38 UNL A   1      55.379  56.568  19.427  1.00  0.00    +0.000 C 
ATOM     54  F7  UNL A   1      56.545  56.423  18.782  1.00  0.00    +0.000 F 
ATOM     55  C39 UNL A   1      55.221  57.587  20.353  1.00  0.00    +0.000 C 
ATOM     56  F8  UNL A   1      56.226  58.440  20.591  1.00  0.00    +0.000 F 
ATOM     57  C40 UNL A   1      54.022  57.718  21.039  1.00  0.00    +0.000 C 
ATOM     58  F9  UNL A   1      53.865  58.709  21.927  1.00  0.00    +0.000 F 
ATOM     59  C41 UNL A   1      52.983  56.821  20.807  1.00  0.00    +0.000 C 
ATOM     60  F10 UNL A   1      51.840  56.966  21.492  1.00  0.00    +0.000 F 
ENDBRANCH   49   50
BRANCH   64   65
ATOM     65  C45 UNL A   1      47.777  56.081  15.398  1.00  0.00    +0.000 C 
ATOM     66  C46 UNL A   1      48.013  55.907  14.028  1.00  0.00    +0.000 C 
ATOM     67  F11 UNL A   1      48.707  54.842  13.600  1.00  0.00    +0.000 F 
ATOM     68  C47 UNL A   1      47.562  56.840  13.097  1.00  0.00    +0.000 C 
ATOM     69  F12 UNL A   1      47.827  56.665  11.795  1.00  0.00    +0.000 F 
ATOM     70  C48 UNL A   1      46.846  57.951  13.516  1.00  0.00    +0.000 C 
ATOM     71  F13 UNL A   1      46.403  58.842  12.620  1.00  0.00    +0.000 F 
ATOM     72  C49 UNL A   1      46.594  58.139  14.867  1.00  0.00    +0.000 C 
ATOM     73  F14 UNL A   1      45.892  59.205  15.276  1.00  0.00    +0.000 F 
ATOM     74  C50 UNL A   1      47.065  57.220  15.802  1.00  0.00    +0.000 C 
ATOM     75  F15 UNL A   1      46.810  57.428  17.102  1.00  0.00    +0.000 F 
ENDBRANCH   64   65
TORSDOF 23
ENDMDL
MODEL 10
REMARK VINA RESULT:      -7.9     59.093     65.535
ROOT
ATOM    129  H31 UNL A   1      51.216   9.687  52.944  1.00  0.00    +0.000 H 
ATOM    130  H32 UNL A   1      52.532  11.859  53.268  1.00  0.00    +0.000 H 
ATOM    131  H33 UNL A   1      47.702  16.033  45.506  1.00  0.00    +0.000 H 
ATOM    132  H34 UNL A   1      46.073  14.056  45.458  1.00  0.00    +0.000 H 
ATOM     28  C21 UNL A   1      46.742  11.980  47.289  1.00  0.00    +0.000 C 
ATOM     29  C22 UNL A   1      47.398  13.324  47.146  1.00  0.00    +0.000 C 
ATOM     30  N5  UNL A   1      48.402  13.830  47.817  1.00  0.00    +0.000 N 
ATOM     31  C23 UNL A   1      48.646  15.074  47.250  1.00  0.00    +0.000 C 
ATOM     32  C24 UNL A   1      49.555  16.007  47.622  1.00  0.00    +0.000 C 
ATOM     44  C31 UNL A   1      50.454  15.864  48.737  1.00  0.00    +0.000 C 
ATOM     45  C32 UNL A   1      51.339  16.794  49.257  1.00  0.00    +0.000 C 
ATOM     46  C33 UNL A   1      52.039  16.192  50.307  1.00  0.00    +0.000 C 
ATOM     47  C34 UNL A   1      51.560  14.902  50.471  1.00  0.00    +0.000 C 
ATOM     48  N6  UNL A   1      50.586  14.716  49.504  1.00  0.00    +0.000 N 
ATOM     49  C35 UNL A   1      51.961  13.911  51.438  1.00  0.00    +0.000 C 
ATOM     61  C42 UNL A   1      51.409  12.678  51.560  1.00  0.00    +0.000 C 
ATOM     62  N7  UNL A   1      50.393  12.100  50.813  1.00  0.00    +0.000 N 
ATOM     63  C43 UNL A   1      50.227  10.895  51.302  1.00  0.00    +0.000 C 
ATOM     64  C44 UNL A   1      49.253   9.831  50.882  1.00  0.00    +0.000 C 
ATOM     76  C51 UNL A   1      48.356  10.100  49.914  1.00  0.00    +0.000 C 
ATOM     77  C52 UNL A   1      47.345   9.172  49.418  1.00  0.00    +0.000 C 
ATOM     78  C53 UNL A   1      46.667   9.756  48.418  1.00  0.00    +0.000 C 
ATOM     79  C54 UNL A   1      47.179  11.113  48.223  1.00  0.00    +0.000 C 
ATOM     80  N8  UNL A   1      48.166  11.238  49.169  1.00  0.00    +0.000 N 
ATOM     81  C55 UNL A   1      51.132  10.567  52.411  1.00  0.00    +0.000 C 
ATOM     82  C56 UNL A   1      51.810  11.698  52.548  1.00  0.00    +0.000 C 
ATOM     83  C57 UNL A   1      47.713  15.227  46.153  1.00  0.00    +0.000 C 
ATOM     84  C58 UNL A   1      46.877  14.202  46.087  1.00  0.00    +0.000 C 
ATOM    123  H25 UNL A   1      51.461  17.763  48.925  1.00  0.00    +0.000 H 
ATOM    124  H26 UNL A   1      52.787  16.633  50.865  1.00  0.00    +0.000 H 
ATOM    125  H27 UNL A   1      50.063  13.891  49.379  1.00  0.00    +0.000 H 
ATOM    126  H28 UNL A   1      47.179   8.219  49.778  1.00  0.00    +0.000 H 
ATOM    127  H29 UNL A   1      45.907   9.319  47.874  1.00  0.00    +0.000 H 
ATOM    128  H30 UNL A   1      48.688  12.062  49.298  1.00  0.00    +0.000 H 
ENDROOT
BRANCH   28   27
ATOM    122  H24 UNL A   1      46.923  10.386  45.104  1.00  0.00    +0.000 H 
ATOM    133  H35 UNL A   1      44.132  12.580  47.372  1.00  0.00    +0.000 H 
ATOM    134  H36 UNL A   1      42.370  11.896  45.855  1.00  0.00    +0.000 H 
ATOM     85  C59 UNL A   1      44.357  11.991  46.555  1.00  0.00    +0.000 C 
ATOM     86  C60 UNL A   1      43.349  11.631  45.664  1.00  0.00    +0.000 C 
ATOM     24  C17 UNL A   1      43.667  10.909  44.509  1.00  0.00    +0.000 C 
ATOM     25  C18 UNL A   1      44.968  10.440  44.311  1.00  0.00    +0.000 C 
ATOM     26  C19 UNL A   1      45.967  10.750  45.236  1.00  0.00    +0.000 C 
ATOM     27  C20 UNL A   1      45.675  11.559  46.348  1.00  0.00    +0.000 C 
ATOM    121  H23 UNL A   1      45.192   9.866  43.483  1.00  0.00    +0.000 H 
BRANCH   24   22
ATOM     22  C16 UNL A   1      42.638  10.605  43.491  1.00  0.00    +0.000 C 
ATOM     23  O3  UNL A   1      42.004   9.557  43.562  1.00  0.00    +0.000 O 
BRANCH   22   21
ATOM     21  N4  UNL A   1      42.401  11.484  42.463  1.00  0.00    +0.000 N 
ATOM    120  H22 UNL A   1      43.158  11.626  41.849  1.00  0.00    +0.000 H 
BRANCH   21   20
ATOM     20  C15 UNL A   1      41.197  12.238  42.148  1.00  0.00    +0.000 C 
ATOM    118  H20 UNL A   1      40.377  11.556  42.064  1.00  0.00    +0.000 H 
ATOM    119  H21 UNL A   1      41.038  12.945  42.935  1.00  0.00    +0.000 H 
BRANCH   20   19
ATOM     19  C14 UNL A   1      41.330  13.013  40.840  1.00  0.00    +0.000 C 
ATOM    116  H18 UNL A   1      42.056  12.516  40.231  1.00  0.00    +0.000 H 
ATOM    117  H19 UNL A   1      40.355  13.034  40.401  1.00  0.00    +0.000 H 
BRANCH   19   18
ATOM     18  C13 UNL A   1      41.763  14.473  41.000  1.00  0.00    +0.000 C 
ATOM    115  H17 UNL A   1      41.113  15.045  40.372  1.00  0.00    +0.000 H 
ATOM    114  H16 UNL A   1      42.795  14.544  40.727  1.00  0.00    +0.000 H 
BRANCH   18   17
ATOM     17  C12 UNL A   1      41.607  15.052  42.412  1.00  0.00    +0.000 C 
ATOM    113  H15 UNL A   1      41.249  14.250  43.025  1.00  0.00    +0.000 H 
ATOM    112  H14 UNL A   1      40.931  15.881  42.358  1.00  0.00    +0.000 H 
BRANCH   17   16
ATOM    110  H12 UNL A   1      42.663  16.300  43.779  1.00  0.00    +0.000 H 
ATOM    111  H13 UNL A   1      43.370  14.690  43.519  1.00  0.00    +0.000 H 
ATOM     16  C11 UNL A   1      42.907  15.541  43.064  1.00  0.00    +0.000 C 
BRANCH   16   15
ATOM    108  H10 UNL A   1      44.515  15.326  41.681  1.00  0.00    +0.000 H 
ATOM    109  H11 UNL A   1      43.364  16.596  41.278  1.00  0.00    +0.000 H 
ATOM     15  C10 UNL A   1      43.910  16.120  42.066  1.00  0.00    +0.000 C 
BRANCH   15   14
ATOM    107  H9  UNL A   1      44.312  17.787  43.238  1.00  0.00    +0.000 H 
ATOM     14  N3  UNL A   1      44.768  17.108  42.691  1.00  0.00    +0.000 N 
BRANCH   14   12
ATOM     12  C9  UNL A   1      46.130  17.216  42.617  1.00  0.00    +0.000 C 
ATOM     13  O2  UNL A   1      46.784  16.205  42.351  1.00  0.00    +0.000 O 
BRANCH   12   11
ATOM    105  H7  UNL A   1      46.189  19.350  42.549  1.00  0.00    +0.000 H 
ATOM    106  H8  UNL A   1      46.945  18.635  43.973  1.00  0.00    +0.000 H 
ATOM     11  C8  UNL A   1      46.809  18.558  42.915  1.00  0.00    +0.000 C 
BRANCH   11   10
ATOM     10  N2  UNL A   1      48.114  18.652  42.283  1.00  0.00    +0.000 N 
ATOM    104  H6  UNL A   1      48.900  18.460  42.844  1.00  0.00    +0.000 H 
BRANCH   10    9
ATOM      7  C6  UNL A   1      47.873  19.800  38.988  1.00  0.00    +0.000 C 
ATOM      8  N1  UNL A   1      47.383  19.460  40.236  1.00  0.00    +0.000 N 
ATOM      9  C7  UNL A   1      48.343  18.981  40.994  1.00  0.00    +0.000 C 
ATOM     87  S1  UNL A   1      49.876  18.872  40.208  1.00  0.00    +0.000 S 
ATOM     88  C61 UNL A   1      49.245  19.662  38.828  1.00  0.00    +0.000 C 
BRANCH    7    6
ATOM     97  C69 UNL A   1      46.596  21.660  37.964  1.00  0.00    +0.000 C 
ATOM     98  C70 UNL A   1      45.837  22.180  36.908  1.00  0.00    +0.000 C 
ATOM      3  C2  UNL A   1      45.471  21.358  35.839  1.00  0.00    +0.000 C 
ATOM      4  C3  UNL A   1      45.821  20.010  35.851  1.00  0.00    +0.000 C 
ATOM      5  C4  UNL A   1      46.587  19.492  36.895  1.00  0.00    +0.000 C 
ATOM    102  H4  UNL A   1      45.512  19.390  35.085  1.00  0.00    +0.000 H 
ATOM      6  C5  UNL A   1      46.999  20.321  37.948  1.00  0.00    +0.000 C 
ATOM    103  H5  UNL A   1      46.852  18.495  36.894  1.00  0.00    +0.000 H 
ATOM    142  H44 UNL A   1      46.858  22.266  38.757  1.00  0.00    +0.000 H 
ATOM    143  H45 UNL A   1      45.548  23.171  36.919  1.00  0.00    +0.000 H 
BRANCH    3    2
ATOM      2  O1  UNL A   1      44.730  21.764  34.765  1.00  0.00    +0.000 O 
BRANCH    2    1
ATOM      1  C1  UNL A   1      43.938  22.925  34.997  1.00  0.00    +0.000 C 
ATOM     99  H1  UNL A   1      43.926  23.146  36.044  1.00  0.00    +0.000 H 
ATOM    100  H2  UNL A   1      42.937  22.748  34.659  1.00  0.00    +0.000 H 
ATOM    101  H3  UNL A   1      44.354  23.753  34.462  1.00  0.00    +0.000 H 
ENDBRANCH    2    1
ENDBRANCH    3    2
ENDBRANCH    7    6
BRANCH   88   89
ATOM    135  H37 UNL A   1      50.179  18.275  36.695  1.00  0.00    +0.000 H 
ATOM    136  H38 UNL A   1      51.590  19.090  34.903  1.00  0.00    +0.000 H 
ATOM    140  H42 UNL A   1      51.754  22.871  36.715  1.00  0.00    +0.000 H 
ATOM    141  H43 UNL A   1      50.360  22.056  38.521  1.00  0.00    +0.000 H 
ATOM     89  C62 UNL A   1      50.132  20.104  37.749  1.00  0.00    +0.000 C 
ATOM     90  C63 UNL A   1      50.505  19.254  36.703  1.00  0.00    +0.000 C 
ATOM     91  C64 UNL A   1      51.318  19.727  35.667  1.00  0.00    +0.000 C 
ATOM     92  C65 UNL A   1      51.763  21.050  35.653  1.00  0.00    +0.000 C 
ATOM     95  C67 UNL A   1      51.416  21.896  36.704  1.00  0.00    +0.000 C 
ATOM     96  C68 UNL A   1      50.609  21.424  37.743  1.00  0.00    +0.000 C 
BRANCH   92   93
ATOM     93  O4  UNL A   1      52.528  21.393  34.573  1.00  0.00    +0.000 O 
BRANCH   93   94
ATOM    137  H39 UNL A   1      52.115  21.356  32.569  1.00  0.00    +0.000 H 
ATOM    138  H40 UNL A   1      52.091  22.940  33.307  1.00  0.00    +0.000 H 
ATOM    139  H41 UNL A   1      50.782  21.821  33.598  1.00  0.00    +0.000 H 
ATOM     94  C66 UNL A   1      51.836  21.910  33.441  1.00  0.00    +0.000 C 
ENDBRANCH   93   94
ENDBRANCH   92   93
ENDBRANCH   88   89
ENDBRANCH   10    9
ENDBRANCH   11   10
ENDBRANCH   12   11
ENDBRANCH   14   12
ENDBRANCH   15   14
ENDBRANCH   16   15
ENDBRANCH   17   16
ENDBRANCH   18   17
ENDBRANCH   19   18
ENDBRANCH   20   19
ENDBRANCH   21   20
ENDBRANCH   22   21
ENDBRANCH   24   22
ENDBRANCH   28   27
BRANCH   32   33
ATOM     33  C25 UNL A   1      49.623  17.269  46.812  1.00  0.00    +0.000 C 
ATOM     34  C26 UNL A   1      48.709  18.316  46.998  1.00  0.00    +0.000 C 
ATOM     35  F1  UNL A   1      47.717  18.196  47.892  1.00  0.00    +0.000 F 
ATOM     36  C27 UNL A   1      48.787  19.478  46.234  1.00  0.00    +0.000 C 
ATOM     37  F2  UNL A   1      47.872  20.445  46.393  1.00  0.00    +0.000 F 
ATOM     38  C28 UNL A   1      49.797  19.629  45.296  1.00  0.00    +0.000 C 
ATOM     39  F3  UNL A   1      49.872  20.748  44.563  1.00  0.00    +0.000 F 
ATOM     40  C29 UNL A   1      50.726  18.616  45.112  1.00  0.00    +0.000 C 
ATOM     41  F4  UNL A   1      51.710  18.764  44.214  1.00  0.00    +0.000 F 
ATOM     42  C30 UNL A   1      50.635  17.442  45.855  1.00  0.00    +0.000 C 
ATOM     43  F5  UNL A   1      51.537  16.472  45.641  1.00  0.00    +0.000 F 
ENDBRANCH   32   33
BRANCH   49   50
ATOM     50  C36 UNL A   1      53.057  14.269  52.396  1.00  0.00    +0.000 C 
ATOM     51  C37 UNL A   1      54.408  14.112  52.052  1.00  0.00    +0.000 C 
ATOM     52  F6  UNL A   1      54.744  13.583  50.865  1.00  0.00    +0.000 F 
ATOM     53  C38 UNL A   1      55.419  14.466  52.941  1.00  0.00    +0.000 C 
ATOM     54  F7  UNL A   1      56.701  14.270  52.605  1.00  0.00    +0.000 F 
ATOM     55  C39 UNL A   1      55.100  15.010  54.176  1.00  0.00    +0.000 C 
ATOM     56  F8  UNL A   1      56.074  15.356  55.029  1.00  0.00    +0.000 F 
ATOM     57  C40 UNL A   1      53.771  15.186  54.532  1.00  0.00    +0.000 C 
ATOM     58  F9  UNL A   1      53.463  15.720  55.721  1.00  0.00    +0.000 F 
ATOM     59  C41 UNL A   1      52.758  14.809  53.656  1.00  0.00    +0.000 C 
ATOM     60  F10 UNL A   1      51.482  14.982  54.030  1.00  0.00    +0.000 F 
ENDBRANCH   49   50
BRANCH   64   65
ATOM     65  C45 UNL A   1      49.247   8.498  51.531  1.00  0.00    +0.000 C 
ATOM     66  C46 UNL A   1      48.266   8.160  52.473  1.00  0.00    +0.000 C 
ATOM     67  F11 UNL A   1      47.346   9.067  52.834  1.00  0.00    +0.000 F 
ATOM     68  C47 UNL A   1      48.244   6.900  53.068  1.00  0.00    +0.000 C 
ATOM     69  F12 UNL A   1      47.313   6.613  53.987  1.00  0.00    +0.000 F 
ATOM     70  C48 UNL A   1      49.187   5.947  52.714  1.00  0.00    +0.000 C 
ATOM     71  F13 UNL A   1      49.158   4.733  53.277  1.00  0.00    +0.000 F 
ATOM     72  C49 UNL A   1      50.163   6.257  51.777  1.00  0.00    +0.000 C 
ATOM     73  F14 UNL A   1      51.069   5.336  51.423  1.00  0.00    +0.000 F 
ATOM     74  C50 UNL A   1      50.201   7.524  51.200  1.00  0.00    +0.000 C 
ATOM     75  F15 UNL A   1      51.157   7.799  50.300  1.00  0.00    +0.000 F 
ENDBRANCH   64   65
TORSDOF 23
ENDMDL
