MODEL 1
REMARK VINA RESULT:     -11.8      0.000      0.000
ROOT
ATOM      2  C2  UNL A   1      33.687  19.328  24.964  1.00  0.00    +0.000 C 
ATOM      3  C3  UNL A   1      34.833  18.303  24.680  1.00  0.00    +0.000 C 
ATOM      5  C5  UNL A   1      36.251  18.838  24.940  1.00  0.00    +0.000 C 
ATOM      6  C6  UNL A   1      36.528  20.257  24.494  1.00  0.00    +0.000 C 
ATOM      7  C7  UNL A   1      35.369  21.270  24.556  1.00  0.00    +0.000 C 
ATOM    146  H41 UNL A   1      35.834  21.686  22.490  1.00  0.00    +0.000 H 
ATOM    147  H42 UNL A   1      36.518  22.838  23.704  1.00  0.00    +0.000 H 
ATOM    148  H43 UNL A   1      34.782  23.659  22.040  1.00  0.00    +0.000 H 
ATOM    149  H44 UNL A   1      34.705  24.069  23.796  1.00  0.00    +0.000 H 
ATOM    153  H48 UNL A   1      32.148  21.356  26.089  1.00  0.00    +0.000 H 
ATOM    154  H49 UNL A   1      32.054  23.719  26.782  1.00  0.00    +0.000 H 
ATOM    155  H50 UNL A   1      30.722  23.476  25.646  1.00  0.00    +0.000 H 
ATOM    156  H51 UNL A   1      33.416  24.673  24.973  1.00  0.00    +0.000 H 
ATOM    160  H55 UNL A   1      34.002  26.247  26.149  1.00  0.00    +0.000 H 
ATOM    161  H56 UNL A   1      32.672  25.913  27.289  1.00  0.00    +0.000 H 
ATOM    162  H57 UNL A   1      33.700  28.128  27.578  1.00  0.00    +0.000 H 
ATOM    163  H58 UNL A   1      31.959  28.134  27.225  1.00  0.00    +0.000 H 
ATOM    164  H59 UNL A   1      34.167  28.767  25.341  1.00  0.00    +0.000 H 
ATOM    172  H67 UNL A   1      33.483  26.998  23.973  1.00  0.00    +0.000 H 
ATOM    173  H68 UNL A   1      31.997  27.369  22.008  1.00  0.00    +0.000 H 
ATOM    174  H69 UNL A   1      30.743  26.525  22.877  1.00  0.00    +0.000 H 
ATOM    175  H70 UNL A   1      33.480  25.423  22.282  1.00  0.00    +0.000 H 
ATOM    176  H71 UNL A   1      31.982  25.022  21.415  1.00  0.00    +0.000 H 
ATOM    180  H75 UNL A   1      33.886  20.257  23.233  1.00  0.00    +0.000 H 
ATOM     83  C60 UNL A   1      35.674  22.271  23.372  1.00  0.00    +0.000 C 
ATOM     84  C61 UNL A   1      34.602  23.321  23.039  1.00  0.00    +0.000 C 
ATOM     85  C62 UNL A   1      33.105  22.866  23.122  1.00  0.00    +0.000 C 
ATOM     87  C64 UNL A   1      32.994  21.845  24.290  1.00  0.00    +0.000 C 
ATOM     88  C65 UNL A   1      32.314  22.125  25.422  1.00  0.00    +0.000 C 
ATOM     89  C66 UNL A   1      31.785  23.493  25.771  1.00  0.00    +0.000 C 
ATOM     90  C67 UNL A   1      32.357  24.596  24.842  1.00  0.00    +0.000 C 
ATOM     91  C68 UNL A   1      32.046  26.097  25.258  1.00  0.00    +0.000 C 
ATOM     93  C70 UNL A   1      32.998  26.477  26.441  1.00  0.00    +0.000 C 
ATOM     94  C71 UNL A   1      32.942  27.949  26.845  1.00  0.00    +0.000 C 
ATOM     95  C72 UNL A   1      33.162  28.912  25.676  1.00  0.00    +0.000 C 
ATOM     97  C73 UNL A   1      32.297  28.621  24.411  1.00  0.00    +0.000 C 
ATOM    100  C76 UNL A   1      32.423  27.083  24.091  1.00  0.00    +0.000 C 
ATOM    101  C77 UNL A   1      31.801  26.635  22.763  1.00  0.00    +0.000 C 
ATOM    102  C78 UNL A   1      32.420  25.298  22.352  1.00  0.00    +0.000 C 
ATOM    103  C79 UNL A   1      32.126  24.148  23.352  1.00  0.00    +0.000 C 
ATOM    105  C81 UNL A   1      33.978  20.659  24.219  1.00  0.00    +0.000 C 
ATOM    109  H4  UNL A   1      33.650  19.522  26.016  1.00  0.00    +0.000 H 
ATOM    110  H5  UNL A   1      34.694  18.126  23.633  1.00  0.00    +0.000 H 
ATOM    114  H9  UNL A   1      36.939  18.196  24.432  1.00  0.00    +0.000 H 
ATOM    115  H10 UNL A   1      36.358  18.849  26.005  1.00  0.00    +0.000 H 
ATOM    116  H11 UNL A   1      36.858  20.212  23.477  1.00  0.00    +0.000 H 
ATOM    117  H12 UNL A   1      37.245  20.625  25.198  1.00  0.00    +0.000 H 
ENDROOT
BRANCH    2    1
ATOM      1  C1  UNL A   1      32.322  18.753  24.548  1.00  0.00    +0.000 C 
ATOM    106  H1  UNL A   1      31.646  19.555  24.340  1.00  0.00    +0.000 H 
ATOM    107  H2  UNL A   1      31.931  18.154  25.345  1.00  0.00    +0.000 H 
ATOM    108  H3  UNL A   1      32.441  18.150  23.673  1.00  0.00    +0.000 H 
ENDBRANCH    2    1
BRANCH    3    4
ATOM    113  H8  UNL A   1      35.005  16.171  24.831  1.00  0.00    +0.000 H 
ATOM      4  C4  UNL A   1      34.719  16.987  25.462  1.00  0.00    +0.000 C 
ATOM    111  H6  UNL A   1      33.708  16.851  25.784  1.00  0.00    +0.000 H 
ATOM    112  H7  UNL A   1      35.365  17.022  26.314  1.00  0.00    +0.000 H 
ENDBRANCH    3    4
BRANCH    7    8
ATOM      9  O1  UNL A   1      34.977  21.565  26.961  1.00  0.00    +0.000 O 
ATOM      8  C8  UNL A   1      35.388  22.077  25.911  1.00  0.00    +0.000 C 
BRANCH    8   10
ATOM     10  N1  UNL A   1      35.894  23.345  26.068  1.00  0.00    +0.000 N 
ATOM    118  H13 UNL A   1      35.299  24.002  26.495  1.00  0.00    +0.000 H 
BRANCH   10   11
ATOM     11  C9  UNL A   1      37.205  23.827  25.676  1.00  0.00    +0.000 C 
ATOM    119  H14 UNL A   1      37.185  24.897  25.690  1.00  0.00    +0.000 H 
ATOM    120  H15 UNL A   1      37.398  23.424  24.704  1.00  0.00    +0.000 H 
BRANCH   11   12
ATOM    121  H16 UNL A   1      37.937  23.152  27.540  1.00  0.00    +0.000 H 
ATOM    122  H17 UNL A   1      39.064  24.159  26.534  1.00  0.00    +0.000 H 
ATOM     12  C10 UNL A   1      38.354  23.360  26.576  1.00  0.00    +0.000 C 
BRANCH   12   13
ATOM    123  H18 UNL A   1      39.502  22.298  25.155  1.00  0.00    +0.000 H 
ATOM    124  H19 UNL A   1      38.463  21.314  26.284  1.00  0.00    +0.000 H 
ATOM     13  C11 UNL A   1      39.155  22.119  26.151  1.00  0.00    +0.000 C 
BRANCH   13   14
ATOM    126  H21 UNL A   1      40.802  22.613  27.309  1.00  0.00    +0.000 H 
ATOM    125  H20 UNL A   1      40.016  21.038  27.748  1.00  0.00    +0.000 H 
ATOM     14  C12 UNL A   1      40.371  21.691  26.978  1.00  0.00    +0.000 C 
BRANCH   14   15
ATOM    127  H22 UNL A   1      41.131  20.613  25.335  1.00  0.00    +0.000 H 
ATOM     15  C13 UNL A   1      41.515  20.974  26.267  1.00  0.00    +0.000 C 
ATOM    128  H23 UNL A   1      41.831  20.225  26.964  1.00  0.00    +0.000 H 
BRANCH   15   16
ATOM    129  H24 UNL A   1      43.392  21.170  25.312  1.00  0.00    +0.000 H 
ATOM    130  H25 UNL A   1      43.245  21.968  26.901  1.00  0.00    +0.000 H 
ATOM     16  C14 UNL A   1      42.780  21.760  25.960  1.00  0.00    +0.000 C 
BRANCH   16   17
ATOM     17  N2  UNL A   1      42.553  23.040  25.324  1.00  0.00    +0.000 N 
ATOM    131  H26 UNL A   1      41.809  23.063  24.680  1.00  0.00    +0.000 H 
BRANCH   17   18
ATOM     18  C15 UNL A   1      43.228  24.232  25.488  1.00  0.00    +0.000 C 
ATOM     19  O2  UNL A   1      44.145  24.518  24.732  1.00  0.00    +0.000 O 
BRANCH   18   20
ATOM    132  H27 UNL A   1      41.412  23.868  27.381  1.00  0.00    +0.000 H 
ATOM    133  H28 UNL A   1      40.717  25.373  29.152  1.00  0.00    +0.000 H 
ATOM    144  H39 UNL A   1      43.484  28.239  27.789  1.00  0.00    +0.000 H 
ATOM     81  C58 UNL A   1      43.022  27.321  27.691  1.00  0.00    +0.000 C 
ATOM     82  C59 UNL A   1      43.353  26.489  26.620  1.00  0.00    +0.000 C 
ATOM    145  H40 UNL A   1      43.996  26.827  25.886  1.00  0.00    +0.000 H 
ATOM     20  C16 UNL A   1      42.819  25.201  26.540  1.00  0.00    +0.000 C 
ATOM     21  C17 UNL A   1      41.845  24.801  27.462  1.00  0.00    +0.000 C 
ATOM     22  C18 UNL A   1      41.457  25.664  28.493  1.00  0.00    +0.000 C 
ATOM     23  C19 UNL A   1      42.066  26.920  28.637  1.00  0.00    +0.000 C 
BRANCH   23   24
ATOM    134  H29 UNL A   1      43.721  29.769  36.879  1.00  0.00    +0.000 H 
ATOM    135  H30 UNL A   1      41.875  31.557  37.322  1.00  0.00    +0.000 H 
ATOM    136  H31 UNL A   1      41.282  29.982  33.538  1.00  0.00    +0.000 H 
ATOM    137  H32 UNL A   1      38.126  29.988  27.992  1.00  0.00    +0.000 H 
ATOM    138  H33 UNL A   1      39.894  28.211  27.584  1.00  0.00    +0.000 H 
ATOM    139  H34 UNL A   1      40.469  29.720  31.414  1.00  0.00    +0.000 H 
ATOM    140  H35 UNL A   1      36.812  33.102  32.132  1.00  0.00    +0.000 H 
ATOM    141  H36 UNL A   1      37.884  33.593  34.404  1.00  0.00    +0.000 H 
ATOM    142  H37 UNL A   1      44.714  26.398  32.826  1.00  0.00    +0.000 H 
ATOM    143  H38 UNL A   1      43.985  26.242  30.377  1.00  0.00    +0.000 H 
ATOM     24  C20 UNL A   1      41.699  27.828  29.757  1.00  0.00    +0.000 C 
ATOM     25  C21 UNL A   1      42.465  27.784  31.052  1.00  0.00    +0.000 C 
ATOM     26  N3  UNL A   1      42.263  28.453  32.160  1.00  0.00    +0.000 N 
ATOM     27  C22 UNL A   1      43.224  28.002  33.056  1.00  0.00    +0.000 C 
ATOM     28  C23 UNL A   1      43.474  28.430  34.318  1.00  0.00    +0.000 C 
ATOM     40  C30 UNL A   1      42.747  29.484  34.975  1.00  0.00    +0.000 C 
ATOM     41  C31 UNL A   1      42.965  30.032  36.228  1.00  0.00    +0.000 C 
ATOM     42  C32 UNL A   1      41.984  31.001  36.458  1.00  0.00    +0.000 C 
ATOM     43  C33 UNL A   1      41.184  31.092  35.332  1.00  0.00    +0.000 C 
ATOM     44  N4  UNL A   1      41.660  30.151  34.431  1.00  0.00    +0.000 N 
ATOM     45  C34 UNL A   1      40.067  31.970  35.092  1.00  0.00    +0.000 C 
ATOM     57  C41 UNL A   1      39.334  32.000  33.952  1.00  0.00    +0.000 C 
ATOM     58  N5  UNL A   1      39.480  31.238  32.800  1.00  0.00    +0.000 N 
ATOM     59  C42 UNL A   1      38.526  31.625  31.989  1.00  0.00    +0.000 C 
ATOM     60  C43 UNL A   1      38.223  31.162  30.589  1.00  0.00    +0.000 C 
ATOM     72  C50 UNL A   1      39.009  30.229  30.018  1.00  0.00    +0.000 C 
ATOM     73  C51 UNL A   1      38.848  29.695  28.669  1.00  0.00    +0.000 C 
ATOM     74  C52 UNL A   1      39.790  28.764  28.449  1.00  0.00    +0.000 C 
ATOM     75  C53 UNL A   1      40.644  28.657  29.632  1.00  0.00    +0.000 C 
ATOM     76  N6  UNL A   1      40.106  29.563  30.513  1.00  0.00    +0.000 N 
ATOM     77  C54 UNL A   1      37.648  32.662  32.548  1.00  0.00    +0.000 C 
ATOM     78  C55 UNL A   1      38.208  32.883  33.730  1.00  0.00    +0.000 C 
ATOM     79  C56 UNL A   1      43.976  26.966  32.382  1.00  0.00    +0.000 C 
ATOM     80  C57 UNL A   1      43.594  26.842  31.119  1.00  0.00    +0.000 C 
BRANCH   28   29
ATOM     33  F2  UNL A   1      48.177  28.088  35.656  1.00  0.00    +0.000 F 
ATOM     34  C27 UNL A   1      46.647  26.513  36.521  1.00  0.00    +0.000 C 
ATOM     35  F3  UNL A   1      47.632  25.910  37.203  1.00  0.00    +0.000 F 
ATOM     36  C28 UNL A   1      45.353  26.018  36.587  1.00  0.00    +0.000 C 
ATOM     37  F4  UNL A   1      45.083  24.949  37.349  1.00  0.00    +0.000 F 
ATOM     38  C29 UNL A   1      44.334  26.628  35.858  1.00  0.00    +0.000 C 
ATOM     39  F5  UNL A   1      43.097  26.116  35.930  1.00  0.00    +0.000 F 
ATOM     29  C24 UNL A   1      44.588  27.760  35.069  1.00  0.00    +0.000 C 
ATOM     30  C25 UNL A   1      45.900  28.257  35.038  1.00  0.00    +0.000 C 
ATOM     31  F1  UNL A   1      46.198  29.329  34.290  1.00  0.00    +0.000 F 
ATOM     32  C26 UNL A   1      46.923  27.626  35.743  1.00  0.00    +0.000 C 
ENDBRANCH   28   29
BRANCH   45   46
ATOM     46  C35 UNL A   1      39.698  32.941  36.174  1.00  0.00    +0.000 C 
ATOM     47  C36 UNL A   1      38.737  32.629  37.146  1.00  0.00    +0.000 C 
ATOM     48  F6  UNL A   1      38.080  31.460  37.096  1.00  0.00    +0.000 F 
ATOM     49  C37 UNL A   1      38.420  33.535  38.156  1.00  0.00    +0.000 C 
ATOM     50  F7  UNL A   1      37.466  33.234  39.047  1.00  0.00    +0.000 F 
ATOM     51  C38 UNL A   1      39.079  34.753  38.230  1.00  0.00    +0.000 C 
ATOM     52  F8  UNL A   1      38.778  35.620  39.207  1.00  0.00    +0.000 F 
ATOM     53  C39 UNL A   1      40.045  35.075  37.289  1.00  0.00    +0.000 C 
ATOM     54  F9  UNL A   1      40.692  36.246  37.368  1.00  0.00    +0.000 F 
ATOM     55  C40 UNL A   1      40.344  34.184  36.263  1.00  0.00    +0.000 C 
ATOM     56  F10 UNL A   1      41.276  34.528  35.361  1.00  0.00    +0.000 F 
ENDBRANCH   45   46
BRANCH   60   61
ATOM     65  F12 UNL A   1      36.115  34.910  28.286  1.00  0.00    +0.000 F 
ATOM     66  C47 UNL A   1      34.940  32.865  28.394  1.00  0.00    +0.000 C 
ATOM     67  F13 UNL A   1      33.913  33.401  27.721  1.00  0.00    +0.000 F 
ATOM     68  C48 UNL A   1      34.880  31.546  28.820  1.00  0.00    +0.000 C 
ATOM     69  F14 UNL A   1      33.802  30.801  28.542  1.00  0.00    +0.000 F 
ATOM     70  C49 UNL A   1      35.938  30.995  29.540  1.00  0.00    +0.000 C 
ATOM     71  F15 UNL A   1      35.846  29.722  29.953  1.00  0.00    +0.000 F 
ATOM     61  C44 UNL A   1      37.089  31.744  29.826  1.00  0.00    +0.000 C 
ATOM     62  C45 UNL A   1      37.134  33.069  29.369  1.00  0.00    +0.000 C 
ATOM     63  F11 UNL A   1      38.203  33.832  29.636  1.00  0.00    +0.000 F 
ATOM     64  C46 UNL A   1      36.064  33.628  28.673  1.00  0.00    +0.000 C 
ENDBRANCH   60   61
ENDBRANCH   23   24
ENDBRANCH   18   20
ENDBRANCH   17   18
ENDBRANCH   16   17
ENDBRANCH   15   16
ENDBRANCH   14   15
ENDBRANCH   13   14
ENDBRANCH   12   13
ENDBRANCH   11   12
ENDBRANCH   10   11
ENDBRANCH    8   10
ENDBRANCH    7    8
BRANCH   85   86
ATOM    151  H46 UNL A   1      31.754  22.463  21.485  1.00  0.00    +0.000 H 
ATOM     86  C63 UNL A   1      32.740  22.169  21.783  1.00  0.00    +0.000 C 
ATOM    150  H45 UNL A   1      33.441  22.457  21.028  1.00  0.00    +0.000 H 
ATOM    152  H47 UNL A   1      32.771  21.107  21.914  1.00  0.00    +0.000 H 
ENDBRANCH   85   86
BRANCH   91   92
ATOM     92  C69 UNL A   1      30.589  26.217  25.748  1.00  0.00    +0.000 C 
ATOM    157  H52 UNL A   1      29.924  26.108  24.917  1.00  0.00    +0.000 H 
ATOM    158  H53 UNL A   1      30.443  27.175  26.200  1.00  0.00    +0.000 H 
ATOM    159  H54 UNL A   1      30.390  25.448  26.466  1.00  0.00    +0.000 H 
ENDBRANCH   91   92
BRANCH   95   96
ATOM    165  H60 UNL A   1      32.160  30.301  26.664  1.00  0.00    +0.000 H 
ATOM     96  O3  UNL A   1      32.974  30.251  26.139  1.00  0.00    +0.000 O 
ENDBRANCH   95   96
BRANCH   97   98
ATOM     98  C74 UNL A   1      30.847  29.126  24.567  1.00  0.00    +0.000 C 
ATOM    166  H61 UNL A   1      30.322  28.496  25.254  1.00  0.00    +0.000 H 
ATOM    167  H62 UNL A   1      30.357  29.102  23.616  1.00  0.00    +0.000 H 
ATOM    168  H63 UNL A   1      30.856  30.129  24.939  1.00  0.00    +0.000 H 
ENDBRANCH   97   98
BRANCH   97   99
ATOM    169  H64 UNL A   1      33.956  29.309  23.207  1.00  0.00    +0.000 H 
ATOM    170  H65 UNL A   1      32.692  30.498  23.413  1.00  0.00    +0.000 H 
ATOM     99  C75 UNL A   1      32.898  29.461  23.247  1.00  0.00    +0.000 C 
ATOM    171  H66 UNL A   1      32.458  29.154  22.321  1.00  0.00    +0.000 H 
ENDBRANCH   97   99
BRANCH  103  104
ATOM    177  H72 UNL A   1      30.299  24.189  22.186  1.00  0.00    +0.000 H 
ATOM    178  H73 UNL A   1      30.032  24.106  23.910  1.00  0.00    +0.000 H 
ATOM    179  H74 UNL A   1      30.556  22.686  23.038  1.00  0.00    +0.000 H 
ATOM    104  C80 UNL A   1      30.635  23.751  23.102  1.00  0.00    +0.000 C 
ENDBRANCH  103  104
TORSDOF 23
ENDMDL
MODEL 2
REMARK VINA RESULT:     -11.8      2.654      8.786
ROOT
ATOM      2  C2  UNL A   1      30.239  29.832  23.577  1.00  0.00    +0.000 C 
ATOM      3  C3  UNL A   1      29.762  31.136  24.298  1.00  0.00    +0.000 C 
ATOM      5  C5  UNL A   1      30.691  31.622  25.422  1.00  0.00    +0.000 C 
ATOM      6  C6  UNL A   1      31.268  30.556  26.328  1.00  0.00    +0.000 C 
ATOM      7  C7  UNL A   1      31.567  29.175  25.715  1.00  0.00    +0.000 C 
ATOM    146  H41 UNL A   1      30.389  28.378  27.339  1.00  0.00    +0.000 H 
ATOM    147  H42 UNL A   1      32.182  28.338  27.566  1.00  0.00    +0.000 H 
ATOM    148  H43 UNL A   1      30.895  26.155  27.391  1.00  0.00    +0.000 H 
ATOM    149  H44 UNL A   1      32.438  26.439  26.498  1.00  0.00    +0.000 H 
ATOM    153  H48 UNL A   1      31.821  27.865  22.405  1.00  0.00    +0.000 H 
ATOM    154  H49 UNL A   1      33.702  26.298  22.696  1.00  0.00    +0.000 H 
ATOM    155  H50 UNL A   1      32.309  25.326  22.211  1.00  0.00    +0.000 H 
ATOM    156  H51 UNL A   1      33.298  25.694  25.044  1.00  0.00    +0.000 H 
ATOM    160  H55 UNL A   1      35.282  25.271  25.349  1.00  0.00    +0.000 H 
ATOM    161  H56 UNL A   1      35.553  25.189  23.588  1.00  0.00    +0.000 H 
ATOM    162  H57 UNL A   1      37.373  24.214  24.924  1.00  0.00    +0.000 H 
ATOM    163  H58 UNL A   1      36.596  23.109  23.770  1.00  0.00    +0.000 H 
ATOM    164  H59 UNL A   1      36.198  23.190  26.713  1.00  0.00    +0.000 H 
ATOM    172  H67 UNL A   1      33.927  23.634  26.376  1.00  0.00    +0.000 H 
ATOM    173  H68 UNL A   1      32.223  21.818  26.418  1.00  0.00    +0.000 H 
ATOM    174  H69 UNL A   1      32.013  22.060  24.704  1.00  0.00    +0.000 H 
ATOM    175  H70 UNL A   1      31.727  24.198  26.805  1.00  0.00    +0.000 H 
ATOM    176  H71 UNL A   1      30.396  23.347  25.993  1.00  0.00    +0.000 H 
ATOM    180  H75 UNL A   1      29.536  28.625  24.972  1.00  0.00    +0.000 H 
ATOM     83  C60 UNL A   1      31.350  28.170  26.915  1.00  0.00    +0.000 C 
ATOM     84  C61 UNL A   1      31.398  26.667  26.598  1.00  0.00    +0.000 C 
ATOM     85  C62 UNL A   1      30.751  26.200  25.249  1.00  0.00    +0.000 C 
ATOM     87  C64 UNL A   1      31.001  27.323  24.201  1.00  0.00    +0.000 C 
ATOM     88  C65 UNL A   1      31.818  27.143  23.142  1.00  0.00    +0.000 C 
ATOM     89  C66 UNL A   1      32.727  25.952  22.971  1.00  0.00    +0.000 C 
ATOM     90  C67 UNL A   1      32.842  25.112  24.271  1.00  0.00    +0.000 C 
ATOM     91  C68 UNL A   1      33.944  23.968  24.274  1.00  0.00    +0.000 C 
ATOM     93  C70 UNL A   1      35.340  24.644  24.484  1.00  0.00    +0.000 C 
ATOM     94  C71 UNL A   1      36.491  23.659  24.682  1.00  0.00    +0.000 C 
ATOM     95  C72 UNL A   1      36.239  22.641  25.796  1.00  0.00    +0.000 C 
ATOM     97  C73 UNL A   1      34.858  21.918  25.727  1.00  0.00    +0.000 C 
ATOM    100  C76 UNL A   1      33.752  23.021  25.516  1.00  0.00    +0.000 C 
ATOM    101  C77 UNL A   1      32.304  22.528  25.621  1.00  0.00    +0.000 C 
ATOM    102  C78 UNL A   1      31.394  23.725  25.906  1.00  0.00    +0.000 C 
ATOM    103  C79 UNL A   1      31.387  24.779  24.768  1.00  0.00    +0.000 C 
ATOM    105  C81 UNL A   1      30.544  28.732  24.629  1.00  0.00    +0.000 C 
ATOM    109  H4  UNL A   1      31.135  30.047  23.032  1.00  0.00    +0.000 H 
ATOM    110  H5  UNL A   1      28.828  30.812  24.708  1.00  0.00    +0.000 H 
ATOM    114  H9  UNL A   1      30.135  32.303  26.032  1.00  0.00    +0.000 H 
ATOM    115  H10 UNL A   1      31.533  32.058  24.925  1.00  0.00    +0.000 H 
ATOM    116  H11 UNL A   1      30.573  30.407  27.127  1.00  0.00    +0.000 H 
ATOM    117  H12 UNL A   1      32.227  30.937  26.614  1.00  0.00    +0.000 H 
ENDROOT
BRANCH    2    1
ATOM      1  C1  UNL A   1      29.185  29.349  22.566  1.00  0.00    +0.000 C 
ATOM    106  H1  UNL A   1      29.662  28.771  21.802  1.00  0.00    +0.000 H 
ATOM    107  H2  UNL A   1      28.702  30.195  22.124  1.00  0.00    +0.000 H 
ATOM    108  H3  UNL A   1      28.459  28.746  23.069  1.00  0.00    +0.000 H 
ENDBRANCH    2    1
BRANCH    3    4
ATOM    113  H8  UNL A   1      29.470  31.995  22.356  1.00  0.00    +0.000 H 
ATOM      4  C4  UNL A   1      29.547  32.336  23.367  1.00  0.00    +0.000 C 
ATOM    111  H6  UNL A   1      30.377  33.007  23.453  1.00  0.00    +0.000 H 
ATOM    112  H7  UNL A   1      28.647  32.845  23.642  1.00  0.00    +0.000 H 
ENDBRANCH    3    4
BRANCH    7    8
ATOM      9  O1  UNL A   1      33.414  29.502  24.133  1.00  0.00    +0.000 O 
ATOM      8  C8  UNL A   1      33.068  29.072  25.241  1.00  0.00    +0.000 C 
BRANCH    8   10
ATOM     10  N1  UNL A   1      34.102  28.577  25.997  1.00  0.00    +0.000 N 
ATOM    118  H13 UNL A   1      34.584  27.804  25.623  1.00  0.00    +0.000 H 
BRANCH   10   11
ATOM     11  C9  UNL A   1      34.567  29.060  27.283  1.00  0.00    +0.000 C 
ATOM    119  H14 UNL A   1      35.397  28.456  27.587  1.00  0.00    +0.000 H 
ATOM    120  H15 UNL A   1      33.733  28.994  27.951  1.00  0.00    +0.000 H 
BRANCH   11   12
ATOM    121  H16 UNL A   1      34.855  30.911  26.307  1.00  0.00    +0.000 H 
ATOM    122  H17 UNL A   1      36.031  30.489  27.623  1.00  0.00    +0.000 H 
ATOM     12  C10 UNL A   1      35.014  30.526  27.293  1.00  0.00    +0.000 C 
BRANCH   12   13
ATOM    123  H18 UNL A   1      34.695  31.251  29.251  1.00  0.00    +0.000 H 
ATOM    124  H19 UNL A   1      33.288  31.337  28.094  1.00  0.00    +0.000 H 
ATOM     13  C11 UNL A   1      34.331  31.491  28.274  1.00  0.00    +0.000 C 
BRANCH   13   14
ATOM    126  H21 UNL A   1      35.112  33.299  28.922  1.00  0.00    +0.000 H 
ATOM    125  H20 UNL A   1      34.944  33.151  27.121  1.00  0.00    +0.000 H 
ATOM     14  C12 UNL A   1      34.511  33.000  28.088  1.00  0.00    +0.000 C 
BRANCH   14   15
ATOM    127  H22 UNL A   1      32.591  33.421  28.848  1.00  0.00    +0.000 H 
ATOM     15  C13 UNL A   1      33.276  33.893  28.175  1.00  0.00    +0.000 C 
ATOM    128  H23 UNL A   1      32.946  33.987  27.160  1.00  0.00    +0.000 H 
BRANCH   15   16
ATOM    129  H24 UNL A   1      33.106  35.980  27.873  1.00  0.00    +0.000 H 
ATOM    130  H25 UNL A   1      34.496  35.451  28.860  1.00  0.00    +0.000 H 
ATOM     16  C14 UNL A   1      33.454  35.328  28.646  1.00  0.00    +0.000 C 
BRANCH   16   17
ATOM     17  N2  UNL A   1      32.745  35.654  29.865  1.00  0.00    +0.000 N 
ATOM    131  H26 UNL A   1      31.916  36.171  29.743  1.00  0.00    +0.000 H 
BRANCH   17   18
ATOM     18  C15 UNL A   1      33.061  35.346  31.171  1.00  0.00    +0.000 C 
ATOM     19  O2  UNL A   1      32.337  35.732  32.077  1.00  0.00    +0.000 O 
BRANCH   18   20
ATOM    132  H27 UNL A   1      35.599  35.877  30.626  1.00  0.00    +0.000 H 
ATOM    133  H28 UNL A   1      37.584  34.583  31.146  1.00  0.00    +0.000 H 
ATOM    144  H39 UNL A   1      35.187  31.678  33.027  1.00  0.00    +0.000 H 
ATOM     81  C58 UNL A   1      35.278  32.557  32.493  1.00  0.00    +0.000 C 
ATOM     82  C59 UNL A   1      34.132  33.258  32.113  1.00  0.00    +0.000 C 
ATOM    145  H40 UNL A   1      33.199  32.855  32.292  1.00  0.00    +0.000 H 
ATOM     20  C16 UNL A   1      34.245  34.504  31.491  1.00  0.00    +0.000 C 
ATOM     21  C17 UNL A   1      35.511  34.979  31.128  1.00  0.00    +0.000 C 
ATOM     22  C18 UNL A   1      36.657  34.240  31.443  1.00  0.00    +0.000 C 
ATOM     23  C19 UNL A   1      36.553  33.038  32.158  1.00  0.00    +0.000 C 
BRANCH   23   24
ATOM    134  H29 UNL A   1      42.981  31.573  38.102  1.00  0.00    +0.000 H 
ATOM    135  H30 UNL A   1      44.430  29.690  37.028  1.00  0.00    +0.000 H 
ATOM    136  H31 UNL A   1      41.374  30.641  34.399  1.00  0.00    +0.000 H 
ATOM    137  H32 UNL A   1      38.227  29.525  28.962  1.00  0.00    +0.000 H 
ATOM    138  H33 UNL A   1      36.849  31.396  29.987  1.00  0.00    +0.000 H 
ATOM    139  H34 UNL A   1      39.948  30.514  32.613  1.00  0.00    +0.000 H 
ATOM    140  H35 UNL A   1      42.670  26.916  30.383  1.00  0.00    +0.000 H 
ATOM    141  H36 UNL A   1      44.106  26.864  32.500  1.00  0.00    +0.000 H 
ATOM    142  H37 UNL A   1      38.759  34.416  36.409  1.00  0.00    +0.000 H 
ATOM    143  H38 UNL A   1      37.019  34.147  34.550  1.00  0.00    +0.000 H 
ATOM     24  C20 UNL A   1      37.766  32.266  32.543  1.00  0.00    +0.000 C 
ATOM     25  C21 UNL A   1      38.483  32.571  33.831  1.00  0.00    +0.000 C 
ATOM     26  N3  UNL A   1      39.583  32.050  34.313  1.00  0.00    +0.000 N 
ATOM     27  C22 UNL A   1      39.830  32.718  35.505  1.00  0.00    +0.000 C 
ATOM     28  C23 UNL A   1      40.815  32.503  36.411  1.00  0.00    +0.000 C 
ATOM     40  C30 UNL A   1      41.825  31.485  36.283  1.00  0.00    +0.000 C 
ATOM     41  C31 UNL A   1      42.827  31.146  37.176  1.00  0.00    +0.000 C 
ATOM     42  C32 UNL A   1      43.594  30.125  36.606  1.00  0.00    +0.000 C 
ATOM     43  C33 UNL A   1      43.042  29.794  35.379  1.00  0.00    +0.000 C 
ATOM     44  N4  UNL A   1      41.960  30.640  35.191  1.00  0.00    +0.000 N 
ATOM     45  C34 UNL A   1      43.468  28.782  34.447  1.00  0.00    +0.000 C 
ATOM     57  C41 UNL A   1      42.866  28.516  33.262  1.00  0.00    +0.000 C 
ATOM     58  N5  UNL A   1      41.750  29.117  32.696  1.00  0.00    +0.000 N 
ATOM     59  C42 UNL A   1      41.568  28.523  31.541  1.00  0.00    +0.000 C 
ATOM     60  C43 UNL A   1      40.488  28.749  30.516  1.00  0.00    +0.000 C 
ATOM     72  C50 UNL A   1      39.531  29.666  30.757  1.00  0.00    +0.000 C 
ATOM     73  C51 UNL A   1      38.419  29.984  29.867  1.00  0.00    +0.000 C 
ATOM     74  C52 UNL A   1      37.684  30.964  30.414  1.00  0.00    +0.000 C 
ATOM     75  C53 UNL A   1      38.255  31.325  31.712  1.00  0.00    +0.000 C 
ATOM     76  N6  UNL A   1      39.350  30.504  31.832  1.00  0.00    +0.000 N 
ATOM     77  C54 UNL A   1      42.569  27.494  31.232  1.00  0.00    +0.000 C 
ATOM     78  C55 UNL A   1      43.312  27.501  32.330  1.00  0.00    +0.000 C 
ATOM     79  C56 UNL A   1      38.794  33.719  35.649  1.00  0.00    +0.000 C 
ATOM     80  C57 UNL A   1      37.898  33.622  34.679  1.00  0.00    +0.000 C 
BRANCH   28   29
ATOM     33  F2  UNL A   1      42.679  36.228  38.993  1.00  0.00    +0.000 F 
ATOM     34  C27 UNL A   1      40.848  35.043  39.895  1.00  0.00    +0.000 C 
ATOM     35  F3  UNL A   1      40.859  35.827  40.983  1.00  0.00    +0.000 F 
ATOM     36  C28 UNL A   1      39.923  34.015  39.789  1.00  0.00    +0.000 C 
ATOM     37  F4  UNL A   1      39.026  33.819  40.765  1.00  0.00    +0.000 F 
ATOM     38  C29 UNL A   1      39.928  33.184  38.671  1.00  0.00    +0.000 C 
ATOM     39  F5  UNL A   1      39.031  32.189  38.605  1.00  0.00    +0.000 F 
ATOM     29  C24 UNL A   1      40.844  33.382  37.627  1.00  0.00    +0.000 C 
ATOM     30  C25 UNL A   1      41.754  34.444  37.746  1.00  0.00    +0.000 C 
ATOM     31  F1  UNL A   1      42.658  34.670  36.781  1.00  0.00    +0.000 F 
ATOM     32  C26 UNL A   1      41.767  35.254  38.879  1.00  0.00    +0.000 C 
ENDBRANCH   28   29
BRANCH   45   46
ATOM     46  C35 UNL A   1      44.653  27.942  34.821  1.00  0.00    +0.000 C 
ATOM     47  C36 UNL A   1      45.962  28.334  34.504  1.00  0.00    +0.000 C 
ATOM     48  F6  UNL A   1      46.179  29.457  33.802  1.00  0.00    +0.000 F 
ATOM     49  C37 UNL A   1      47.053  27.552  34.876  1.00  0.00    +0.000 C 
ATOM     50  F7  UNL A   1      48.291  27.923  34.524  1.00  0.00    +0.000 F 
ATOM     51  C38 UNL A   1      46.858  26.384  35.598  1.00  0.00    +0.000 C 
ATOM     52  F8  UNL A   1      47.910  25.637  35.962  1.00  0.00    +0.000 F 
ATOM     53  C39 UNL A   1      45.574  25.987  35.938  1.00  0.00    +0.000 C 
ATOM     54  F9  UNL A   1      45.385  24.865  36.647  1.00  0.00    +0.000 F 
ATOM     55  C40 UNL A   1      44.480  26.751  35.543  1.00  0.00    +0.000 C 
ATOM     56  F10 UNL A   1      43.249  26.336  35.876  1.00  0.00    +0.000 F 
ENDBRANCH   45   46
BRANCH   60   61
ATOM     65  F12 UNL A   1      41.861  28.022  25.892  1.00  0.00    +0.000 F 
ATOM     66  C47 UNL A   1      40.385  26.463  26.874  1.00  0.00    +0.000 C 
ATOM     67  F13 UNL A   1      40.344  25.760  25.735  1.00  0.00    +0.000 F 
ATOM     68  C48 UNL A   1      39.642  26.054  27.972  1.00  0.00    +0.000 C 
ATOM     69  F14 UNL A   1      38.899  24.942  27.900  1.00  0.00    +0.000 F 
ATOM     70  C49 UNL A   1      39.666  26.798  29.150  1.00  0.00    +0.000 C 
ATOM     71  F15 UNL A   1      38.927  26.386  30.191  1.00  0.00    +0.000 F 
ATOM     61  C44 UNL A   1      40.454  27.953  29.262  1.00  0.00    +0.000 C 
ATOM     62  C45 UNL A   1      41.210  28.338  28.145  1.00  0.00    +0.000 C 
ATOM     63  F11 UNL A   1      41.961  29.446  28.196  1.00  0.00    +0.000 F 
ATOM     64  C46 UNL A   1      41.164  27.608  26.958  1.00  0.00    +0.000 C 
ENDBRANCH   60   61
ENDBRANCH   23   24
ENDBRANCH   18   20
ENDBRANCH   17   18
ENDBRANCH   16   17
ENDBRANCH   15   16
ENDBRANCH   14   15
ENDBRANCH   13   14
ENDBRANCH   12   13
ENDBRANCH   11   12
ENDBRANCH   10   11
ENDBRANCH    8   10
ENDBRANCH    7    8
BRANCH   85   86
ATOM    151  H46 UNL A   1      28.846  26.891  25.998  1.00  0.00    +0.000 H 
ATOM     86  C63 UNL A   1      29.225  26.033  25.480  1.00  0.00    +0.000 C 
ATOM    150  H45 UNL A   1      28.729  25.941  24.536  1.00  0.00    +0.000 H 
ATOM    152  H47 UNL A   1      29.046  25.155  26.065  1.00  0.00    +0.000 H 
ENDBRANCH   85   86
BRANCH   91   92
ATOM     92  C69 UNL A   1      33.953  23.242  22.915  1.00  0.00    +0.000 C 
ATOM    157  H52 UNL A   1      32.951  22.985  22.641  1.00  0.00    +0.000 H 
ATOM    158  H53 UNL A   1      34.542  22.352  22.991  1.00  0.00    +0.000 H 
ATOM    159  H54 UNL A   1      34.372  23.886  22.169  1.00  0.00    +0.000 H 
ENDBRANCH   91   92
BRANCH   95   96
ATOM    165  H60 UNL A   1      38.016  22.029  26.408  1.00  0.00    +0.000 H 
ATOM     96  O3  UNL A   1      37.317  21.704  25.818  1.00  0.00    +0.000 O 
ENDBRANCH   95   96
BRANCH   97   98
ATOM     98  C74 UNL A   1      34.843  20.787  24.677  1.00  0.00    +0.000 C 
ATOM    166  H61 UNL A   1      35.660  20.120  24.860  1.00  0.00    +0.000 H 
ATOM    167  H62 UNL A   1      34.938  21.208  23.699  1.00  0.00    +0.000 H 
ATOM    168  H63 UNL A   1      33.922  20.248  24.747  1.00  0.00    +0.000 H 
ENDBRANCH   97   98
BRANCH   97   99
ATOM    169  H64 UNL A   1      33.669  21.420  27.463  1.00  0.00    +0.000 H 
ATOM    170  H65 UNL A   1      35.378  21.560  27.795  1.00  0.00    +0.000 H 
ATOM     99  C75 UNL A   1      34.650  21.207  27.095  1.00  0.00    +0.000 C 
ATOM    171  H66 UNL A   1      34.761  20.150  26.969  1.00  0.00    +0.000 H 
ENDBRANCH   97   99
BRANCH  103  104
ATOM    177  H72 UNL A   1      31.026  23.293  23.232  1.00  0.00    +0.000 H 
ATOM    178  H73 UNL A   1      30.387  24.872  22.846  1.00  0.00    +0.000 H 
ATOM    179  H74 UNL A   1      29.573  23.861  24.015  1.00  0.00    +0.000 H 
ATOM    104  C80 UNL A   1      30.525  24.153  23.625  1.00  0.00    +0.000 C 
ENDBRANCH  103  104
TORSDOF 23
ENDMDL
MODEL 3
REMARK VINA RESULT:     -11.7      2.586      8.946
ROOT
ATOM      2  C2  UNL A   1      29.954  29.568  23.098  1.00  0.00    +0.000 C 
ATOM      3  C3  UNL A   1      29.494  30.906  23.765  1.00  0.00    +0.000 C 
ATOM      5  C5  UNL A   1      30.456  31.455  24.831  1.00  0.00    +0.000 C 
ATOM      6  C6  UNL A   1      31.068  30.441  25.772  1.00  0.00    +0.000 C 
ATOM      7  C7  UNL A   1      31.354  29.030  25.224  1.00  0.00    +0.000 C 
ATOM    146  H41 UNL A   1      30.234  28.316  26.925  1.00  0.00    +0.000 H 
ATOM    147  H42 UNL A   1      32.033  28.295  27.095  1.00  0.00    +0.000 H 
ATOM    148  H43 UNL A   1      30.753  26.100  27.078  1.00  0.00    +0.000 H 
ATOM    149  H44 UNL A   1      32.264  26.343  26.121  1.00  0.00    +0.000 H 
ATOM    153  H48 UNL A   1      31.508  27.547  21.981  1.00  0.00    +0.000 H 
ATOM    154  H49 UNL A   1      33.406  26.005  22.294  1.00  0.00    +0.000 H 
ATOM    155  H50 UNL A   1      32.003  25.003  21.905  1.00  0.00    +0.000 H 
ATOM    156  H51 UNL A   1      33.081  25.525  24.682  1.00  0.00    +0.000 H 
ATOM    160  H55 UNL A   1      35.076  25.126  24.944  1.00  0.00    +0.000 H 
ATOM    161  H56 UNL A   1      35.290  24.952  23.182  1.00  0.00    +0.000 H 
ATOM    162  H57 UNL A   1      37.158  24.055  24.508  1.00  0.00    +0.000 H 
ATOM    163  H58 UNL A   1      36.349  22.888  23.439  1.00  0.00    +0.000 H 
ATOM    164  H59 UNL A   1      36.046  23.123  26.385  1.00  0.00    +0.000 H 
ATOM    172  H67 UNL A   1      33.763  23.540  26.099  1.00  0.00    +0.000 H 
ATOM    173  H68 UNL A   1      32.071  21.723  26.292  1.00  0.00    +0.000 H 
ATOM    174  H69 UNL A   1      31.805  21.873  24.576  1.00  0.00    +0.000 H 
ATOM    175  H70 UNL A   1      31.576  24.118  26.569  1.00  0.00    +0.000 H 
ATOM    176  H71 UNL A   1      30.223  23.221  25.847  1.00  0.00    +0.000 H 
ATOM    180  H75 UNL A   1      29.303  28.434  24.578  1.00  0.00    +0.000 H 
ATOM     83  C60 UNL A   1      31.181  28.090  26.482  1.00  0.00    +0.000 C 
ATOM     84  C61 UNL A   1      31.227  26.572  26.243  1.00  0.00    +0.000 C 
ATOM     85  C62 UNL A   1      30.539  26.032  24.942  1.00  0.00    +0.000 C 
ATOM     87  C64 UNL A   1      30.750  27.099  23.829  1.00  0.00    +0.000 C 
ATOM     88  C65 UNL A   1      31.533  26.865  22.755  1.00  0.00    +0.000 C 
ATOM     89  C66 UNL A   1      32.442  25.670  22.618  1.00  0.00    +0.000 C 
ATOM     90  C67 UNL A   1      32.603  24.901  23.956  1.00  0.00    +0.000 C 
ATOM     91  C68 UNL A   1      33.711  23.763  23.983  1.00  0.00    +0.000 C 
ATOM     93  C70 UNL A   1      35.109  24.454  24.112  1.00  0.00    +0.000 C 
ATOM     94  C71 UNL A   1      36.271  23.485  24.324  1.00  0.00    +0.000 C 
ATOM     95  C72 UNL A   1      36.061  22.526  25.498  1.00  0.00    +0.000 C 
ATOM     97  C73 UNL A   1      34.683  21.796  25.513  1.00  0.00    +0.000 C 
ATOM    100  C76 UNL A   1      33.564  22.882  25.280  1.00  0.00    +0.000 C 
ATOM    101  C77 UNL A   1      32.123  22.390  25.458  1.00  0.00    +0.000 C 
ATOM    102  C78 UNL A   1      31.216  23.597  25.708  1.00  0.00    +0.000 C 
ATOM    103  C79 UNL A   1      31.167  24.590  24.516  1.00  0.00    +0.000 C 
ATOM    105  C81 UNL A   1      30.298  28.526  24.197  1.00  0.00    +0.000 C 
ATOM    109  H4  UNL A   1      30.831  29.757  22.514  1.00  0.00    +0.000 H 
ATOM    110  H5  UNL A   1      28.575  30.601  24.222  1.00  0.00    +0.000 H 
ATOM    114  H9  UNL A   1      29.916  32.165  25.422  1.00  0.00    +0.000 H 
ATOM    115  H10 UNL A   1      31.279  31.867  24.284  1.00  0.00    +0.000 H 
ATOM    116  H11 UNL A   1      30.399  30.331  26.600  1.00  0.00    +0.000 H 
ATOM    117  H12 UNL A   1      32.033  30.839  26.006  1.00  0.00    +0.000 H 
ENDROOT
BRANCH    2    1
ATOM      1  C1  UNL A   1      28.871  29.028  22.149  1.00  0.00    +0.000 C 
ATOM    106  H1  UNL A   1      28.329  29.847  21.724  1.00  0.00    +0.000 H 
ATOM    107  H2  UNL A   1      28.199  28.401  22.697  1.00  0.00    +0.000 H 
ATOM    108  H3  UNL A   1      29.332  28.460  21.368  1.00  0.00    +0.000 H 
ENDBRANCH    2    1
BRANCH    3    4
ATOM    113  H8  UNL A   1      29.938  32.847  22.969  1.00  0.00    +0.000 H 
ATOM      4  C4  UNL A   1      29.243  32.055  22.779  1.00  0.00    +0.000 C 
ATOM    111  H6  UNL A   1      28.245  32.420  22.904  1.00  0.00    +0.000 H 
ATOM    112  H7  UNL A   1      29.371  31.701  21.778  1.00  0.00    +0.000 H 
ENDBRANCH    3    4
BRANCH    7    8
ATOM      9  O1  UNL A   1      33.237  29.589  23.753  1.00  0.00    +0.000 O 
ATOM      8  C8  UNL A   1      32.840  28.908  24.707  1.00  0.00    +0.000 C 
BRANCH    8   10
ATOM     10  N1  UNL A   1      33.810  28.119  25.275  1.00  0.00    +0.000 N 
ATOM    118  H13 UNL A   1      34.267  27.489  24.673  1.00  0.00    +0.000 H 
BRANCH   10   11
ATOM     11  C9  UNL A   1      34.239  28.107  26.661  1.00  0.00    +0.000 C 
ATOM    119  H14 UNL A   1      34.675  27.151  26.866  1.00  0.00    +0.000 H 
ATOM    120  H15 UNL A   1      33.368  28.306  27.250  1.00  0.00    +0.000 H 
BRANCH   11   12
ATOM    121  H16 UNL A   1      35.540  29.679  26.113  1.00  0.00    +0.000 H 
ATOM    122  H17 UNL A   1      36.045  28.653  27.523  1.00  0.00    +0.000 H 
ATOM     12  C10 UNL A   1      35.264  29.187  27.023  1.00  0.00    +0.000 C 
BRANCH   12   13
ATOM    123  H18 UNL A   1      35.683  30.431  28.679  1.00  0.00    +0.000 H 
ATOM    124  H19 UNL A   1      33.954  29.894  28.460  1.00  0.00    +0.000 H 
ATOM     13  C11 UNL A   1      34.851  30.279  28.022  1.00  0.00    +0.000 C 
BRANCH   13   14
ATOM    126  H21 UNL A   1      35.107  32.336  27.984  1.00  0.00    +0.000 H 
ATOM    125  H20 UNL A   1      34.497  31.621  26.431  1.00  0.00    +0.000 H 
ATOM     14  C12 UNL A   1      34.436  31.657  27.499  1.00  0.00    +0.000 C 
BRANCH   14   15
ATOM    127  H22 UNL A   1      33.024  32.317  28.917  1.00  0.00    +0.000 H 
ATOM     15  C13 UNL A   1      33.047  32.179  27.855  1.00  0.00    +0.000 C 
ATOM    128  H23 UNL A   1      32.379  31.440  27.464  1.00  0.00    +0.000 H 
BRANCH   15   16
ATOM    129  H24 UNL A   1      31.673  33.289  26.690  1.00  0.00    +0.000 H 
ATOM    130  H25 UNL A   1      33.377  33.811  26.586  1.00  0.00    +0.000 H 
ATOM     16  C14 UNL A   1      32.581  33.481  27.221  1.00  0.00    +0.000 C 
BRANCH   16   17
ATOM     17  N2  UNL A   1      32.336  34.554  28.161  1.00  0.00    +0.000 N 
ATOM    131  H26 UNL A   1      31.388  34.775  28.308  1.00  0.00    +0.000 H 
BRANCH   17   18
ATOM     18  C15 UNL A   1      33.237  35.312  28.880  1.00  0.00    +0.000 C 
ATOM     19  O2  UNL A   1      33.056  36.514  29.001  1.00  0.00    +0.000 O 
BRANCH   18   20
ATOM    132  H27 UNL A   1      33.254  34.118  31.245  1.00  0.00    +0.000 H 
ATOM    133  H28 UNL A   1      35.086  33.025  32.400  1.00  0.00    +0.000 H 
ATOM    144  H39 UNL A   1      37.636  33.903  29.167  1.00  0.00    +0.000 H 
ATOM     81  C58 UNL A   1      36.712  33.969  29.625  1.00  0.00    +0.000 C 
ATOM     82  C59 UNL A   1      35.681  34.675  29.004  1.00  0.00    +0.000 C 
ATOM    145  H40 UNL A   1      35.866  35.198  28.133  1.00  0.00    +0.000 H 
ATOM     20  C16 UNL A   1      34.398  34.676  29.558  1.00  0.00    +0.000 C 
ATOM     21  C17 UNL A   1      34.188  34.081  30.808  1.00  0.00    +0.000 C 
ATOM     22  C18 UNL A   1      35.241  33.436  31.466  1.00  0.00    +0.000 C 
ATOM     23  C19 UNL A   1      36.506  33.346  30.865  1.00  0.00    +0.000 C 
BRANCH   23   24
ATOM    134  H29 UNL A   1      42.666  26.969  30.436  1.00  0.00    +0.000 H 
ATOM    135  H30 UNL A   1      43.850  27.064  32.758  1.00  0.00    +0.000 H 
ATOM    136  H31 UNL A   1      40.838  29.907  32.713  1.00  0.00    +0.000 H 
ATOM    137  H32 UNL A   1      37.767  34.734  35.538  1.00  0.00    +0.000 H 
ATOM    138  H33 UNL A   1      36.583  34.604  33.295  1.00  0.00    +0.000 H 
ATOM    139  H34 UNL A   1      39.549  31.692  33.337  1.00  0.00    +0.000 H 
ATOM    140  H35 UNL A   1      41.694  31.968  37.881  1.00  0.00    +0.000 H 
ATOM    141  H36 UNL A   1      43.317  30.156  37.087  1.00  0.00    +0.000 H 
ATOM    142  H37 UNL A   1      38.454  29.528  28.320  1.00  0.00    +0.000 H 
ATOM    143  H38 UNL A   1      37.156  31.661  28.887  1.00  0.00    +0.000 H 
ATOM     24  C20 UNL A   1      37.622  32.620  31.530  1.00  0.00    +0.000 C 
ATOM     25  C21 UNL A   1      38.311  31.480  30.830  1.00  0.00    +0.000 C 
ATOM     26  N3  UNL A   1      39.263  30.692  31.264  1.00  0.00    +0.000 N 
ATOM     27  C22 UNL A   1      39.501  29.784  30.240  1.00  0.00    +0.000 C 
ATOM     28  C23 UNL A   1      40.435  28.804  30.175  1.00  0.00    +0.000 C 
ATOM     40  C30 UNL A   1      41.393  28.528  31.213  1.00  0.00    +0.000 C 
ATOM     41  C31 UNL A   1      42.420  27.598  31.215  1.00  0.00    +0.000 C 
ATOM     42  C32 UNL A   1      43.064  27.661  32.454  1.00  0.00    +0.000 C 
ATOM     43  C33 UNL A   1      42.471  28.661  33.207  1.00  0.00    +0.000 C 
ATOM     44  N4  UNL A   1      41.443  29.182  32.435  1.00  0.00    +0.000 N 
ATOM     45  C34 UNL A   1      42.813  29.110  34.532  1.00  0.00    +0.000 C 
ATOM     57  C41 UNL A   1      42.182  30.106  35.202  1.00  0.00    +0.000 C 
ATOM     58  N5  UNL A   1      41.116  30.894  34.791  1.00  0.00    +0.000 N 
ATOM     59  C42 UNL A   1      40.857  31.701  35.791  1.00  0.00    +0.000 C 
ATOM     60  C43 UNL A   1      39.822  32.790  35.891  1.00  0.00    +0.000 C 
ATOM     72  C50 UNL A   1      39.021  33.038  34.837  1.00  0.00    +0.000 C 
ATOM     73  C51 UNL A   1      37.986  34.066  34.782  1.00  0.00    +0.000 C 
ATOM     74  C52 UNL A   1      37.368  34.005  33.592  1.00  0.00    +0.000 C 
ATOM     75  C53 UNL A   1      37.985  32.951  32.785  1.00  0.00    +0.000 C 
ATOM     76  N6  UNL A   1      38.956  32.431  33.605  1.00  0.00    +0.000 N 
ATOM     77  C54 UNL A   1      41.717  31.495  36.964  1.00  0.00    +0.000 C 
ATOM     78  C55 UNL A   1      42.532  30.540  36.538  1.00  0.00    +0.000 C 
ATOM     79  C56 UNL A   1      38.559  30.085  29.183  1.00  0.00    +0.000 C 
ATOM     80  C57 UNL A   1      37.850  31.167  29.468  1.00  0.00    +0.000 C 
BRANCH   28   29
ATOM     33  F2  UNL A   1      41.962  27.930  25.600  1.00  0.00    +0.000 F 
ATOM     34  C27 UNL A   1      40.556  26.342  26.636  1.00  0.00    +0.000 C 
ATOM     35  F3  UNL A   1      40.586  25.577  25.536  1.00  0.00    +0.000 F 
ATOM     36  C28 UNL A   1      39.810  25.947  27.737  1.00  0.00    +0.000 C 
ATOM     37  F4  UNL A   1      39.135  24.789  27.708  1.00  0.00    +0.000 F 
ATOM     38  C29 UNL A   1      39.757  26.755  28.871  1.00  0.00    +0.000 C 
ATOM     39  F5  UNL A   1      39.014  26.353  29.913  1.00  0.00    +0.000 F 
ATOM     29  C24 UNL A   1      40.470  27.961  28.933  1.00  0.00    +0.000 C 
ATOM     30  C25 UNL A   1      41.238  28.327  27.817  1.00  0.00    +0.000 C 
ATOM     31  F1  UNL A   1      41.929  29.476  27.820  1.00  0.00    +0.000 F 
ATOM     32  C26 UNL A   1      41.264  27.533  26.672  1.00  0.00    +0.000 C 
ENDBRANCH   28   29
BRANCH   45   46
ATOM     46  C35 UNL A   1      43.969  28.445  35.218  1.00  0.00    +0.000 C 
ATOM     47  C36 UNL A   1      43.794  27.303  36.013  1.00  0.00    +0.000 C 
ATOM     48  F6  UNL A   1      42.565  26.808  36.223  1.00  0.00    +0.000 F 
ATOM     49  C37 UNL A   1      44.881  26.685  36.627  1.00  0.00    +0.000 C 
ATOM     50  F7  UNL A   1      44.686  25.622  37.419  1.00  0.00    +0.000 F 
ATOM     51  C38 UNL A   1      46.163  27.178  36.432  1.00  0.00    +0.000 C 
ATOM     52  F8  UNL A   1      47.209  26.577  37.018  1.00  0.00    +0.000 F 
ATOM     53  C39 UNL A   1      46.361  28.295  35.635  1.00  0.00    +0.000 C 
ATOM     54  F9  UNL A   1      47.601  28.763  35.435  1.00  0.00    +0.000 F 
ATOM     55  C40 UNL A   1      45.274  28.931  35.043  1.00  0.00    +0.000 C 
ATOM     56  F10 UNL A   1      45.495  30.016  34.287  1.00  0.00    +0.000 F 
ENDBRANCH   45   46
BRANCH   60   61
ATOM     65  F12 UNL A   1      37.803  33.653  40.246  1.00  0.00    +0.000 F 
ATOM     66  C47 UNL A   1      39.443  35.159  39.460  1.00  0.00    +0.000 C 
ATOM     67  F13 UNL A   1      39.313  35.903  40.567  1.00  0.00    +0.000 F 
ATOM     68  C48 UNL A   1      40.332  35.540  38.466  1.00  0.00    +0.000 C 
ATOM     69  F14 UNL A   1      41.077  36.643  38.621  1.00  0.00    +0.000 F 
ATOM     70  C49 UNL A   1      40.450  34.781  37.304  1.00  0.00    +0.000 C 
ATOM     71  F15 UNL A   1      41.307  35.180  36.353  1.00  0.00    +0.000 F 
ATOM     61  C44 UNL A   1      39.699  33.609  37.125  1.00  0.00    +0.000 C 
ATOM     62  C45 UNL A   1      38.820  33.235  38.152  1.00  0.00    +0.000 C 
ATOM     63  F11 UNL A   1      38.065  32.135  38.017  1.00  0.00    +0.000 F 
ATOM     64  C46 UNL A   1      38.682  34.010  39.301  1.00  0.00    +0.000 C 
ENDBRANCH   60   61
ENDBRANCH   23   24
ENDBRANCH   18   20
ENDBRANCH   17   18
ENDBRANCH   16   17
ENDBRANCH   15   16
ENDBRANCH   14   15
ENDBRANCH   13   14
ENDBRANCH   12   13
ENDBRANCH   11   12
ENDBRANCH   10   11
ENDBRANCH    8   10
ENDBRANCH    7    8
BRANCH   85   86
ATOM    151  H46 UNL A   1      28.481  25.865  24.308  1.00  0.00    +0.000 H 
ATOM     86  C63 UNL A   1      29.022  25.872  25.231  1.00  0.00    +0.000 C 
ATOM    150  H45 UNL A   1      28.853  24.951  25.750  1.00  0.00    +0.000 H 
ATOM    152  H47 UNL A   1      28.686  26.689  25.835  1.00  0.00    +0.000 H 
ENDBRANCH   85   86
BRANCH   91   92
ATOM     92  C69 UNL A   1      33.680  22.966  22.665  1.00  0.00    +0.000 C 
ATOM    157  H52 UNL A   1      33.348  21.967  22.860  1.00  0.00    +0.000 H 
ATOM    158  H53 UNL A   1      34.662  22.940  22.241  1.00  0.00    +0.000 H 
ATOM    159  H54 UNL A   1      33.006  23.437  21.979  1.00  0.00    +0.000 H 
ENDBRANCH   91   92
BRANCH   95   96
ATOM    165  H60 UNL A   1      36.861  20.754  25.143  1.00  0.00    +0.000 H 
ATOM     96  O3  UNL A   1      37.144  21.596  25.535  1.00  0.00    +0.000 O 
ENDBRANCH   95   96
BRANCH   97   98
ATOM     98  C74 UNL A   1      34.640  20.611  24.525  1.00  0.00    +0.000 C 
ATOM    166  H61 UNL A   1      34.702  19.691  25.069  1.00  0.00    +0.000 H 
ATOM    167  H62 UNL A   1      35.464  20.681  23.848  1.00  0.00    +0.000 H 
ATOM    168  H63 UNL A   1      33.722  20.638  23.976  1.00  0.00    +0.000 H 
ENDBRANCH   97   98
BRANCH   97   99
ATOM    169  H64 UNL A   1      33.984  20.236  26.838  1.00  0.00    +0.000 H 
ATOM    170  H65 UNL A   1      33.984  21.827  27.559  1.00  0.00    +0.000 H 
ATOM     99  C75 UNL A   1      34.522  21.157  26.922  1.00  0.00    +0.000 C 
ATOM    171  H66 UNL A   1      35.489  20.967  27.341  1.00  0.00    +0.000 H 
ENDBRANCH   97   99
BRANCH  103  104
ATOM    177  H72 UNL A   1      29.640  23.176  23.907  1.00  0.00    +0.000 H 
ATOM    178  H73 UNL A   1      30.894  23.415  22.715  1.00  0.00    +0.000 H 
ATOM    179  H74 UNL A   1      29.668  24.637  22.951  1.00  0.00    +0.000 H 
ATOM    104  C80 UNL A   1      30.272  23.900  23.437  1.00  0.00    +0.000 C 
ENDBRANCH  103  104
TORSDOF 23
ENDMDL
MODEL 4
REMARK VINA RESULT:     -11.6      4.249      8.230
ROOT
ATOM      2  C2  UNL A   1      33.330  19.248  24.774  1.00  0.00    +0.000 C 
ATOM      3  C3  UNL A   1      34.486  18.217  24.554  1.00  0.00    +0.000 C 
ATOM      5  C5  UNL A   1      35.873  18.704  25.005  1.00  0.00    +0.000 C 
ATOM      6  C6  UNL A   1      36.219  20.142  24.686  1.00  0.00    +0.000 C 
ATOM      7  C7  UNL A   1      35.076  21.174  24.684  1.00  0.00    +0.000 C 
ATOM    146  H41 UNL A   1      35.777  21.710  22.714  1.00  0.00    +0.000 H 
ATOM    147  H42 UNL A   1      36.336  22.768  24.070  1.00  0.00    +0.000 H 
ATOM    148  H43 UNL A   1      34.811  23.730  22.280  1.00  0.00    +0.000 H 
ATOM    149  H44 UNL A   1      34.543  24.030  24.039  1.00  0.00    +0.000 H 
ATOM    153  H48 UNL A   1      31.704  21.233  25.850  1.00  0.00    +0.000 H 
ATOM    154  H49 UNL A   1      31.566  23.550  26.682  1.00  0.00    +0.000 H 
ATOM    155  H50 UNL A   1      30.368  23.408  25.391  1.00  0.00    +0.000 H 
ATOM    156  H51 UNL A   1      33.138  24.586  25.101  1.00  0.00    +0.000 H 
ATOM    160  H55 UNL A   1      33.611  26.070  26.436  1.00  0.00    +0.000 H 
ATOM    161  H56 UNL A   1      32.156  25.693  27.397  1.00  0.00    +0.000 H 
ATOM    162  H57 UNL A   1      33.177  27.863  27.942  1.00  0.00    +0.000 H 
ATOM    163  H58 UNL A   1      31.487  27.929  27.398  1.00  0.00    +0.000 H 
ATOM    164  H59 UNL A   1      33.902  28.631  25.817  1.00  0.00    +0.000 H 
ATOM    172  H67 UNL A   1      33.351  26.968  24.269  1.00  0.00    +0.000 H 
ATOM    173  H68 UNL A   1      32.102  27.494  22.179  1.00  0.00    +0.000 H 
ATOM    174  H69 UNL A   1      30.746  26.625  22.846  1.00  0.00    +0.000 H 
ATOM    175  H70 UNL A   1      33.517  25.503  22.489  1.00  0.00    +0.000 H 
ATOM    176  H71 UNL A   1      32.120  25.191  21.437  1.00  0.00    +0.000 H 
ATOM    180  H75 UNL A   1      33.737  20.279  23.141  1.00  0.00    +0.000 H 
ATOM     83  C60 UNL A   1      35.527  22.241  23.609  1.00  0.00    +0.000 C 
ATOM     84  C61 UNL A   1      34.515  23.334  23.228  1.00  0.00    +0.000 C 
ATOM     85  C62 UNL A   1      33.011  22.907  23.113  1.00  0.00    +0.000 C 
ATOM     87  C64 UNL A   1      32.755  21.816  24.193  1.00  0.00    +0.000 C 
ATOM     88  C65 UNL A   1      31.956  22.039  25.257  1.00  0.00    +0.000 C 
ATOM     89  C66 UNL A   1      31.410  23.394  25.634  1.00  0.00    +0.000 C 
ATOM     90  C67 UNL A   1      32.100  24.541  24.849  1.00  0.00    +0.000 C 
ATOM     91  C68 UNL A   1      31.765  26.019  25.324  1.00  0.00    +0.000 C 
ATOM     93  C70 UNL A   1      32.584  26.302  26.628  1.00  0.00    +0.000 C 
ATOM     94  C71 UNL A   1      32.504  27.747  27.119  1.00  0.00    +0.000 C 
ATOM     95  C72 UNL A   1      32.868  28.777  26.047  1.00  0.00    +0.000 C 
ATOM     97  C73 UNL A   1      32.147  28.585  24.677  1.00  0.00    +0.000 C 
ATOM    100  C76 UNL A   1      32.286  27.068  24.273  1.00  0.00    +0.000 C 
ATOM    101  C77 UNL A   1      31.812  26.719  22.858  1.00  0.00    +0.000 C 
ATOM    102  C78 UNL A   1      32.454  25.397  22.433  1.00  0.00    +0.000 C 
ATOM    103  C79 UNL A   1      32.032  24.193  23.316  1.00  0.00    +0.000 C 
ATOM    105  C81 UNL A   1      33.723  20.617  24.155  1.00  0.00    +0.000 C 
ATOM    109  H4  UNL A   1      33.177  19.375  25.826  1.00  0.00    +0.000 H 
ATOM    110  H5  UNL A   1      34.463  18.110  23.489  1.00  0.00    +0.000 H 
ATOM    114  H9  UNL A   1      36.605  18.080  24.536  1.00  0.00    +0.000 H 
ATOM    115  H10 UNL A   1      35.859  18.646  26.074  1.00  0.00    +0.000 H 
ATOM    116  H11 UNL A   1      36.661  20.154  23.712  1.00  0.00    +0.000 H 
ATOM    117  H12 UNL A   1      36.858  20.449  25.488  1.00  0.00    +0.000 H 
ENDROOT
BRANCH    2    1
ATOM      1  C1  UNL A   1      32.013  18.730  24.172  1.00  0.00    +0.000 C 
ATOM    106  H1  UNL A   1      32.186  17.793  23.688  1.00  0.00    +0.000 H 
ATOM    107  H2  UNL A   1      31.645  19.438  23.459  1.00  0.00    +0.000 H 
ATOM    108  H3  UNL A   1      31.291  18.602  24.951  1.00  0.00    +0.000 H 
ENDBRANCH    2    1
BRANCH    3    4
ATOM    113  H8  UNL A   1      34.031  17.008  26.263  1.00  0.00    +0.000 H 
ATOM      4  C4  UNL A   1      34.265  16.858  25.230  1.00  0.00    +0.000 C 
ATOM    111  H6  UNL A   1      35.156  16.270  25.149  1.00  0.00    +0.000 H 
ATOM    112  H7  UNL A   1      33.456  16.348  24.751  1.00  0.00    +0.000 H 
ENDBRANCH    3    4
BRANCH    7    8
ATOM      9  O1  UNL A   1      34.674  21.252  27.104  1.00  0.00    +0.000 O 
ATOM      8  C8  UNL A   1      34.953  21.894  26.083  1.00  0.00    +0.000 C 
BRANCH    8   10
ATOM     10  N1  UNL A   1      35.194  23.228  26.308  1.00  0.00    +0.000 N 
ATOM    118  H13 UNL A   1      34.454  23.844  26.104  1.00  0.00    +0.000 H 
BRANCH   10   11
ATOM     11  C9  UNL A   1      36.412  23.833  26.812  1.00  0.00    +0.000 C 
ATOM    119  H14 UNL A   1      36.747  23.259  27.651  1.00  0.00    +0.000 H 
ATOM    120  H15 UNL A   1      36.166  24.843  27.065  1.00  0.00    +0.000 H 
BRANCH   11   12
ATOM    121  H16 UNL A   1      37.510  24.870  25.334  1.00  0.00    +0.000 H 
ATOM    122  H17 UNL A   1      37.392  23.068  25.151  1.00  0.00    +0.000 H 
ATOM     12  C10 UNL A   1      37.557  23.906  25.796  1.00  0.00    +0.000 C 
BRANCH   12   13
ATOM    123  H18 UNL A   1      39.111  24.350  27.158  1.00  0.00    +0.000 H 
ATOM    124  H19 UNL A   1      39.596  23.942  25.448  1.00  0.00    +0.000 H 
ATOM     13  C11 UNL A   1      38.995  23.716  26.303  1.00  0.00    +0.000 C 
BRANCH   13   14
ATOM    126  H21 UNL A   1      40.507  22.444  26.931  1.00  0.00    +0.000 H 
ATOM    125  H20 UNL A   1      38.854  22.008  27.539  1.00  0.00    +0.000 H 
ATOM     14  C12 UNL A   1      39.466  22.318  26.717  1.00  0.00    +0.000 C 
BRANCH   14   15
ATOM    127  H22 UNL A   1      40.165  21.432  24.937  1.00  0.00    +0.000 H 
ATOM     15  C13 UNL A   1      39.426  21.202  25.677  1.00  0.00    +0.000 C 
ATOM    128  H23 UNL A   1      38.410  21.194  25.337  1.00  0.00    +0.000 H 
BRANCH   15   16
ATOM    129  H24 UNL A   1      38.894  19.156  25.760  1.00  0.00    +0.000 H 
ATOM    130  H25 UNL A   1      39.712  19.804  27.208  1.00  0.00    +0.000 H 
ATOM     16  C14 UNL A   1      39.679  19.775  26.139  1.00  0.00    +0.000 C 
BRANCH   16   17
ATOM     17  N2  UNL A   1      40.943  19.218  25.705  1.00  0.00    +0.000 N 
ATOM    131  H26 UNL A   1      40.893  18.624  24.921  1.00  0.00    +0.000 H 
BRANCH   17   18
ATOM     18  C15 UNL A   1      42.206  19.397  26.229  1.00  0.00    +0.000 C 
ATOM     19  O2  UNL A   1      42.978  18.452  26.285  1.00  0.00    +0.000 O 
BRANCH   18   20
ATOM    132  H27 UNL A   1      43.246  21.319  24.731  1.00  0.00    +0.000 H 
ATOM    133  H28 UNL A   1      43.974  23.541  25.372  1.00  0.00    +0.000 H 
ATOM    144  H39 UNL A   1      42.842  22.754  29.350  1.00  0.00    +0.000 H 
ATOM     81  C58 UNL A   1      42.954  22.445  28.371  1.00  0.00    +0.000 C 
ATOM     82  C59 UNL A   1      42.622  21.137  28.016  1.00  0.00    +0.000 C 
ATOM    145  H40 UNL A   1      42.344  20.460  28.745  1.00  0.00    +0.000 H 
ATOM     20  C16 UNL A   1      42.661  20.740  26.677  1.00  0.00    +0.000 C 
ATOM     21  C17 UNL A   1      43.169  21.620  25.715  1.00  0.00    +0.000 C 
ATOM     22  C18 UNL A   1      43.574  22.909  26.082  1.00  0.00    +0.000 C 
ATOM     23  C19 UNL A   1      43.439  23.344  27.409  1.00  0.00    +0.000 C 
BRANCH   23   24
ATOM    134  H29 UNL A   1      40.832  31.432  29.976  1.00  0.00    +0.000 H 
ATOM    135  H30 UNL A   1      43.054  32.776  30.216  1.00  0.00    +0.000 H 
ATOM    136  H31 UNL A   1      43.978  28.949  28.930  1.00  0.00    +0.000 H 
ATOM    137  H32 UNL A   1      48.335  24.521  27.468  1.00  0.00    +0.000 H 
ATOM    138  H33 UNL A   1      46.165  23.232  27.185  1.00  0.00    +0.000 H 
ATOM    139  H34 UNL A   1      45.202  27.087  28.405  1.00  0.00    +0.000 H 
ATOM    140  H35 UNL A   1      49.573  29.555  28.769  1.00  0.00    +0.000 H 
ATOM    141  H36 UNL A   1      48.227  31.558  29.622  1.00  0.00    +0.000 H 
ATOM    142  H37 UNL A   1      39.664  26.483  28.269  1.00  0.00    +0.000 H 
ATOM    143  H38 UNL A   1      40.999  24.328  27.904  1.00  0.00    +0.000 H 
ATOM     24  C20 UNL A   1      43.818  24.727  27.806  1.00  0.00    +0.000 C 
ATOM     25  C21 UNL A   1      42.756  25.742  28.131  1.00  0.00    +0.000 C 
ATOM     26  N3  UNL A   1      42.884  27.008  28.442  1.00  0.00    +0.000 N 
ATOM     27  C22 UNL A   1      41.592  27.493  28.601  1.00  0.00    +0.000 C 
ATOM     28  C23 UNL A   1      41.191  28.729  28.984  1.00  0.00    +0.000 C 
ATOM     40  C30 UNL A   1      42.087  29.806  29.314  1.00  0.00    +0.000 C 
ATOM     41  C31 UNL A   1      41.779  31.076  29.774  1.00  0.00    +0.000 C 
ATOM     42  C32 UNL A   1      42.972  31.790  29.918  1.00  0.00    +0.000 C 
ATOM     43  C33 UNL A   1      44.027  30.953  29.594  1.00  0.00    +0.000 C 
ATOM     44  N4  UNL A   1      43.469  29.740  29.220  1.00  0.00    +0.000 N 
ATOM     45  C34 UNL A   1      45.439  31.235  29.622  1.00  0.00    +0.000 C 
ATOM     57  C41 UNL A   1      46.414  30.353  29.292  1.00  0.00    +0.000 C 
ATOM     58  N5  UNL A   1      46.293  29.033  28.878  1.00  0.00    +0.000 N 
ATOM     59  C42 UNL A   1      47.515  28.608  28.667  1.00  0.00    +0.000 C 
ATOM     60  C43 UNL A   1      47.986  27.245  28.234  1.00  0.00    +0.000 C 
ATOM     72  C50 UNL A   1      47.081  26.269  28.029  1.00  0.00    +0.000 C 
ATOM     73  C51 UNL A   1      47.387  24.901  27.622  1.00  0.00    +0.000 C 
ATOM     74  C52 UNL A   1      46.241  24.216  27.484  1.00  0.00    +0.000 C 
ATOM     75  C53 UNL A   1      45.117  25.089  27.823  1.00  0.00    +0.000 C 
ATOM     76  N6  UNL A   1      45.710  26.288  28.134  1.00  0.00    +0.000 N 
ATOM     77  C54 UNL A   1      48.551  29.624  28.899  1.00  0.00    +0.000 C 
ATOM     78  C55 UNL A   1      47.830  30.656  29.317  1.00  0.00    +0.000 C 
ATOM     79  C56 UNL A   1      40.693  26.400  28.302  1.00  0.00    +0.000 C 
ATOM     80  C57 UNL A   1      41.361  25.278  28.076  1.00  0.00    +0.000 C 
BRANCH   28   29
ATOM     33  F2  UNL A   1      37.010  28.985  31.530  1.00  0.00    +0.000 F 
ATOM     34  C27 UNL A   1      36.955  29.504  29.228  1.00  0.00    +0.000 C 
ATOM     35  F3  UNL A   1      35.637  29.740  29.298  1.00  0.00    +0.000 F 
ATOM     36  C28 UNL A   1      37.619  29.625  28.016  1.00  0.00    +0.000 C 
ATOM     37  F4  UNL A   1      36.946  29.999  26.919  1.00  0.00    +0.000 F 
ATOM     38  C29 UNL A   1      38.983  29.355  27.937  1.00  0.00    +0.000 C 
ATOM     39  F5  UNL A   1      39.593  29.466  26.747  1.00  0.00    +0.000 F 
ATOM     29  C24 UNL A   1      39.713  28.982  29.075  1.00  0.00    +0.000 C 
ATOM     30  C25 UNL A   1      39.025  28.890  30.295  1.00  0.00    +0.000 C 
ATOM     31  F1  UNL A   1      39.674  28.526  31.411  1.00  0.00    +0.000 F 
ATOM     32  C26 UNL A   1      37.655  29.130  30.365  1.00  0.00    +0.000 C 
ENDBRANCH   28   29
BRANCH   45   46
ATOM     46  C35 UNL A   1      45.869  32.601  30.070  1.00  0.00    +0.000 C 
ATOM     47  C36 UNL A   1      46.163  32.874  31.414  1.00  0.00    +0.000 C 
ATOM     48  F6  UNL A   1      46.013  31.921  32.346  1.00  0.00    +0.000 F 
ATOM     49  C37 UNL A   1      46.581  34.143  31.811  1.00  0.00    +0.000 C 
ATOM     50  F7  UNL A   1      46.813  34.394  33.106  1.00  0.00    +0.000 F 
ATOM     51  C38 UNL A   1      46.741  35.149  30.870  1.00  0.00    +0.000 C 
ATOM     52  F8  UNL A   1      47.149  36.367  31.254  1.00  0.00    +0.000 F 
ATOM     53  C39 UNL A   1      46.472  34.895  29.534  1.00  0.00    +0.000 C 
ATOM     54  F9  UNL A   1      46.640  35.863  28.622  1.00  0.00    +0.000 F 
ATOM     55  C40 UNL A   1      46.028  33.637  29.138  1.00  0.00    +0.000 C 
ATOM     56  F10 UNL A   1      45.765  33.425  27.840  1.00  0.00    +0.000 F 
ENDBRANCH   45   46
BRANCH   60   61
ATOM     65  F12 UNL A   1      51.955  26.909  25.419  1.00  0.00    +0.000 F 
ATOM     66  C47 UNL A   1      52.173  26.412  27.717  1.00  0.00    +0.000 C 
ATOM     67  F13 UNL A   1      53.475  26.141  27.551  1.00  0.00    +0.000 F 
ATOM     68  C48 UNL A   1      51.591  26.287  28.969  1.00  0.00    +0.000 C 
ATOM     69  F14 UNL A   1      52.334  25.913  30.019  1.00  0.00    +0.000 F 
ATOM     70  C49 UNL A   1      50.232  26.546  29.138  1.00  0.00    +0.000 C 
ATOM     71  F15 UNL A   1      49.692  26.403  30.358  1.00  0.00    +0.000 F 
ATOM     61  C44 UNL A   1      49.434  26.962  28.062  1.00  0.00    +0.000 C 
ATOM     62  C45 UNL A   1      50.050  27.099  26.809  1.00  0.00    +0.000 C 
ATOM     63  F11 UNL A   1      49.324  27.472  25.745  1.00  0.00    +0.000 F 
ATOM     64  C46 UNL A   1      51.402  26.812  26.636  1.00  0.00    +0.000 C 
ENDBRANCH   60   61
ENDBRANCH   23   24
ENDBRANCH   18   20
ENDBRANCH   17   18
ENDBRANCH   16   17
ENDBRANCH   15   16
ENDBRANCH   14   15
ENDBRANCH   13   14
ENDBRANCH   12   13
ENDBRANCH   11   12
ENDBRANCH   10   11
ENDBRANCH    8   10
ENDBRANCH    7    8
BRANCH   85   86
ATOM    151  H46 UNL A   1      31.766  22.432  21.414  1.00  0.00    +0.000 H 
ATOM     86  C63 UNL A   1      32.790  22.304  21.700  1.00  0.00    +0.000 C 
ATOM    150  H45 UNL A   1      33.421  22.804  20.995  1.00  0.00    +0.000 H 
ATOM    152  H47 UNL A   1      33.027  21.260  21.715  1.00  0.00    +0.000 H 
ENDBRANCH   85   86
BRANCH   91   92
ATOM     92  C69 UNL A   1      30.265  26.139  25.655  1.00  0.00    +0.000 C 
ATOM    157  H52 UNL A   1      29.711  26.283  24.751  1.00  0.00    +0.000 H 
ATOM    158  H53 UNL A   1      30.110  26.973  26.306  1.00  0.00    +0.000 H 
ATOM    159  H54 UNL A   1      29.933  25.242  26.137  1.00  0.00    +0.000 H 
ENDBRANCH   91   92
BRANCH   95   96
ATOM    165  H60 UNL A   1      33.501  30.491  26.801  1.00  0.00    +0.000 H 
ATOM     96  O3  UNL A   1      32.649  30.087  26.572  1.00  0.00    +0.000 O 
ENDBRANCH   95   96
BRANCH   97   98
ATOM     98  C74 UNL A   1      30.696  29.111  24.703  1.00  0.00    +0.000 C 
ATOM    166  H61 UNL A   1      30.263  28.915  25.662  1.00  0.00    +0.000 H 
ATOM    167  H62 UNL A   1      30.125  28.617  23.946  1.00  0.00    +0.000 H 
ATOM    168  H63 UNL A   1      30.696  30.165  24.520  1.00  0.00    +0.000 H 
ENDBRANCH   97   98
BRANCH   97   99
ATOM    169  H64 UNL A   1      33.872  29.701  24.003  1.00  0.00    +0.000 H 
ATOM    170  H65 UNL A   1      32.347  30.397  23.514  1.00  0.00    +0.000 H 
ATOM     99  C75 UNL A   1      32.888  29.484  23.645  1.00  0.00    +0.000 C 
ATOM    171  H66 UNL A   1      32.955  28.971  22.708  1.00  0.00    +0.000 H 
ENDBRANCH   97   99
BRANCH  103  104
ATOM    177  H72 UNL A   1      29.879  24.353  23.513  1.00  0.00    +0.000 H 
ATOM    178  H73 UNL A   1      30.420  22.790  22.950  1.00  0.00    +0.000 H 
ATOM    179  H74 UNL A   1      30.422  24.159  21.864  1.00  0.00    +0.000 H 
ATOM    104  C80 UNL A   1      30.573  23.845  22.876  1.00  0.00    +0.000 C 
ENDBRANCH  103  104
TORSDOF 23
ENDMDL
MODEL 5
REMARK VINA RESULT:     -11.6      4.544      6.680
ROOT
ATOM      2  C2  UNL A   1      33.685  19.360  24.871  1.00  0.00    +0.000 C 
ATOM      3  C3  UNL A   1      34.819  18.331  24.549  1.00  0.00    +0.000 C 
ATOM      5  C5  UNL A   1      36.244  18.844  24.817  1.00  0.00    +0.000 C 
ATOM      6  C6  UNL A   1      36.532  20.273  24.411  1.00  0.00    +0.000 C 
ATOM      7  C7  UNL A   1      35.385  21.295  24.511  1.00  0.00    +0.000 C 
ATOM    146  H41 UNL A   1      35.841  21.769  22.455  1.00  0.00    +0.000 H 
ATOM    147  H42 UNL A   1      36.544  22.877  23.699  1.00  0.00    +0.000 H 
ATOM    148  H43 UNL A   1      34.807  23.765  22.072  1.00  0.00    +0.000 H 
ATOM    149  H44 UNL A   1      34.745  24.123  23.840  1.00  0.00    +0.000 H 
ATOM    153  H48 UNL A   1      32.174  21.367  26.067  1.00  0.00    +0.000 H 
ATOM    154  H49 UNL A   1      32.108  23.710  26.831  1.00  0.00    +0.000 H 
ATOM    155  H50 UNL A   1      30.767  23.514  25.697  1.00  0.00    +0.000 H 
ATOM    156  H51 UNL A   1      33.469  24.704  25.042  1.00  0.00    +0.000 H 
ATOM    160  H55 UNL A   1      34.079  26.236  26.262  1.00  0.00    +0.000 H 
ATOM    161  H56 UNL A   1      32.752  25.881  27.400  1.00  0.00    +0.000 H 
ATOM    162  H57 UNL A   1      33.805  28.076  27.749  1.00  0.00    +0.000 H 
ATOM    163  H58 UNL A   1      32.061  28.110  27.407  1.00  0.00    +0.000 H 
ATOM    164  H59 UNL A   1      34.264  28.777  25.528  1.00  0.00    +0.000 H 
ATOM    172  H67 UNL A   1      33.554  27.058  24.112  1.00  0.00    +0.000 H 
ATOM    173  H68 UNL A   1      32.060  27.502  22.169  1.00  0.00    +0.000 H 
ATOM    174  H69 UNL A   1      30.802  26.645  23.020  1.00  0.00    +0.000 H 
ATOM    175  H70 UNL A   1      33.525  25.534  22.375  1.00  0.00    +0.000 H 
ATOM    176  H71 UNL A   1      32.017  25.174  21.506  1.00  0.00    +0.000 H 
ATOM    180  H75 UNL A   1      33.884  20.338  23.168  1.00  0.00    +0.000 H 
ATOM     83  C60 UNL A   1      35.692  22.328  23.356  1.00  0.00    +0.000 C 
ATOM     84  C61 UNL A   1      34.630  23.399  23.062  1.00  0.00    +0.000 C 
ATOM     85  C62 UNL A   1      33.128  22.957  23.140  1.00  0.00    +0.000 C 
ATOM     87  C64 UNL A   1      33.014  21.902  24.278  1.00  0.00    +0.000 C 
ATOM     88  C65 UNL A   1      32.344  22.155  25.422  1.00  0.00    +0.000 C 
ATOM     89  C66 UNL A   1      31.831  23.517  25.815  1.00  0.00    +0.000 C 
ATOM     90  C67 UNL A   1      32.409  24.642  24.916  1.00  0.00    +0.000 C 
ATOM     91  C68 UNL A   1      32.115  26.132  25.379  1.00  0.00    +0.000 C 
ATOM     93  C70 UNL A   1      33.079  26.467  26.566  1.00  0.00    +0.000 C 
ATOM     94  C71 UNL A   1      33.040  27.927  27.015  1.00  0.00    +0.000 C 
ATOM     95  C72 UNL A   1      33.263  28.923  25.875  1.00  0.00    +0.000 C 
ATOM     97  C73 UNL A   1      32.387  28.678  24.607  1.00  0.00    +0.000 C 
ATOM    100  C76 UNL A   1      32.495  27.149  24.239  1.00  0.00    +0.000 C 
ATOM    101  C77 UNL A   1      31.861  26.748  22.903  1.00  0.00    +0.000 C 
ATOM    102  C78 UNL A   1      32.464  25.417  22.448  1.00  0.00    +0.000 C 
ATOM    103  C79 UNL A   1      32.164  24.241  23.415  1.00  0.00    +0.000 C 
ATOM    105  C81 UNL A   1      33.985  20.710  24.165  1.00  0.00    +0.000 C 
ATOM    109  H4  UNL A   1      33.656  19.521  25.929  1.00  0.00    +0.000 H 
ATOM    110  H5  UNL A   1      34.672  18.188  23.499  1.00  0.00    +0.000 H 
ATOM    114  H9  UNL A   1      36.923  18.211  24.285  1.00  0.00    +0.000 H 
ATOM    115  H10 UNL A   1      36.357  18.823  25.881  1.00  0.00    +0.000 H 
ATOM    116  H11 UNL A   1      36.856  20.256  23.392  1.00  0.00    +0.000 H 
ATOM    117  H12 UNL A   1      37.258  20.612  25.121  1.00  0.00    +0.000 H 
ENDROOT
BRANCH    2    1
ATOM      1  C1  UNL A   1      32.312  18.811  24.447  1.00  0.00    +0.000 C 
ATOM    106  H1  UNL A   1      32.442  18.080  23.678  1.00  0.00    +0.000 H 
ATOM    107  H2  UNL A   1      31.707  19.613  24.079  1.00  0.00    +0.000 H 
ATOM    108  H3  UNL A   1      31.832  18.361  25.291  1.00  0.00    +0.000 H 
ENDBRANCH    2    1
BRANCH    3    4
ATOM    113  H8  UNL A   1      34.323  16.248  24.623  1.00  0.00    +0.000 H 
ATOM      4  C4  UNL A   1      34.697  16.994  25.292  1.00  0.00    +0.000 C 
ATOM    111  H6  UNL A   1      34.021  17.104  26.115  1.00  0.00    +0.000 H 
ATOM    112  H7  UNL A   1      35.658  16.699  25.656  1.00  0.00    +0.000 H 
ENDBRANCH    3    4
BRANCH    7    8
ATOM      9  O1  UNL A   1      34.985  21.532  26.921  1.00  0.00    +0.000 O 
ATOM      8  C8  UNL A   1      35.420  22.062  25.890  1.00  0.00    +0.000 C 
BRANCH    8   10
ATOM     10  N1  UNL A   1      35.966  23.307  26.088  1.00  0.00    +0.000 N 
ATOM    118  H13 UNL A   1      35.391  23.969  26.534  1.00  0.00    +0.000 H 
BRANCH   10   11
ATOM     11  C9  UNL A   1      37.293  23.759  25.713  1.00  0.00    +0.000 C 
ATOM    119  H14 UNL A   1      37.293  24.829  25.713  1.00  0.00    +0.000 H 
ATOM    120  H15 UNL A   1      37.496  23.339  24.750  1.00  0.00    +0.000 H 
BRANCH   11   12
ATOM    121  H16 UNL A   1      37.985  23.128  27.608  1.00  0.00    +0.000 H 
ATOM    122  H17 UNL A   1      39.157  24.051  26.574  1.00  0.00    +0.000 H 
ATOM     12  C10 UNL A   1      38.416  23.282  26.640  1.00  0.00    +0.000 C 
BRANCH   12   13
ATOM    123  H18 UNL A   1      39.334  22.023  25.212  1.00  0.00    +0.000 H 
ATOM    124  H19 UNL A   1      38.540  21.217  26.642  1.00  0.00    +0.000 H 
ATOM     13  C11 UNL A   1      39.171  21.996  26.270  1.00  0.00    +0.000 C 
BRANCH   13   14
ATOM    126  H21 UNL A   1      41.242  22.082  26.222  1.00  0.00    +0.000 H 
ATOM    125  H20 UNL A   1      40.521  22.178  27.884  1.00  0.00    +0.000 H 
ATOM     14  C12 UNL A   1      40.526  21.707  26.923  1.00  0.00    +0.000 C 
BRANCH   14   15
ATOM    127  H22 UNL A   1      40.177  19.797  27.743  1.00  0.00    +0.000 H 
ATOM     15  C13 UNL A   1      40.932  20.251  27.135  1.00  0.00    +0.000 C 
ATOM    128  H23 UNL A   1      41.909  20.310  27.569  1.00  0.00    +0.000 H 
BRANCH   15   16
ATOM    129  H24 UNL A   1      40.828  19.927  25.047  1.00  0.00    +0.000 H 
ATOM    130  H25 UNL A   1      40.514  18.498  26.069  1.00  0.00    +0.000 H 
ATOM     16  C14 UNL A   1      41.117  19.367  25.911  1.00  0.00    +0.000 C 
BRANCH   16   17
ATOM     17  N2  UNL A   1      42.470  18.895  25.709  1.00  0.00    +0.000 N 
ATOM    131  H26 UNL A   1      42.640  17.970  26.002  1.00  0.00    +0.000 H 
BRANCH   17   18
ATOM     18  C15 UNL A   1      43.556  19.550  25.168  1.00  0.00    +0.000 C 
ATOM     19  O2  UNL A   1      44.258  18.982  24.344  1.00  0.00    +0.000 O 
BRANCH   18   20
ATOM    132  H27 UNL A   1      43.172  21.706  23.676  1.00  0.00    +0.000 H 
ATOM    133  H28 UNL A   1      43.591  24.035  24.206  1.00  0.00    +0.000 H 
ATOM    144  H39 UNL A   1      44.945  22.911  28.031  1.00  0.00    +0.000 H 
ATOM     81  C58 UNL A   1      44.592  22.658  27.094  1.00  0.00    +0.000 C 
ATOM     82  C59 UNL A   1      44.436  21.313  26.753  1.00  0.00    +0.000 C 
ATOM    145  H40 UNL A   1      44.750  20.577  27.405  1.00  0.00    +0.000 H 
ATOM     20  C16 UNL A   1      43.854  20.961  25.532  1.00  0.00    +0.000 C 
ATOM     21  C17 UNL A   1      43.559  21.961  24.598  1.00  0.00    +0.000 C 
ATOM     22  C18 UNL A   1      43.785  23.306  24.911  1.00  0.00    +0.000 C 
ATOM     23  C19 UNL A   1      44.273  23.669  26.175  1.00  0.00    +0.000 C 
BRANCH   23   24
ATOM    134  H29 UNL A   1      49.783  30.605  26.754  1.00  0.00    +0.000 H 
ATOM    135  H30 UNL A   1      48.310  32.513  27.749  1.00  0.00    +0.000 H 
ATOM    136  H31 UNL A   1      45.989  29.095  27.450  1.00  0.00    +0.000 H 
ATOM    137  H32 UNL A   1      40.326  26.207  27.999  1.00  0.00    +0.000 H 
ATOM    138  H33 UNL A   1      41.777  24.338  27.078  1.00  0.00    +0.000 H 
ATOM    139  H34 UNL A   1      44.151  27.731  27.435  1.00  0.00    +0.000 H 
ATOM    140  H35 UNL A   1      41.190  31.290  29.410  1.00  0.00    +0.000 H 
ATOM    141  H36 UNL A   1      43.170  32.893  29.172  1.00  0.00    +0.000 H 
ATOM    142  H37 UNL A   1      48.925  25.407  25.746  1.00  0.00    +0.000 H 
ATOM    143  H38 UNL A   1      46.851  23.926  25.497  1.00  0.00    +0.000 H 
ATOM     24  C20 UNL A   1      44.472  25.098  26.540  1.00  0.00    +0.000 C 
ATOM     25  C21 UNL A   1      45.829  25.735  26.405  1.00  0.00    +0.000 C 
ATOM     26  N3  UNL A   1      46.214  26.946  26.723  1.00  0.00    +0.000 N 
ATOM     27  C22 UNL A   1      47.572  27.000  26.437  1.00  0.00    +0.000 C 
ATOM     28  C23 UNL A   1      48.418  28.055  26.532  1.00  0.00    +0.000 C 
ATOM     40  C30 UNL A   1      48.026  29.371  26.965  1.00  0.00    +0.000 C 
ATOM     41  C31 UNL A   1      48.795  30.521  27.036  1.00  0.00    +0.000 C 
ATOM     42  C32 UNL A   1      47.999  31.547  27.555  1.00  0.00    +0.000 C 
ATOM     43  C33 UNL A   1      46.723  31.050  27.763  1.00  0.00    +0.000 C 
ATOM     44  N4  UNL A   1      46.755  29.712  27.403  1.00  0.00    +0.000 N 
ATOM     45  C34 UNL A   1      45.560  31.743  28.256  1.00  0.00    +0.000 C 
ATOM     57  C41 UNL A   1      44.337  31.182  28.427  1.00  0.00    +0.000 C 
ATOM     58  N5  UNL A   1      43.933  29.878  28.176  1.00  0.00    +0.000 N 
ATOM     59  C42 UNL A   1      42.667  29.822  28.513  1.00  0.00    +0.000 C 
ATOM     60  C43 UNL A   1      41.710  28.663  28.425  1.00  0.00    +0.000 C 
ATOM     72  C50 UNL A   1      42.141  27.488  27.926  1.00  0.00    +0.000 C 
ATOM     73  C51 UNL A   1      41.329  26.286  27.767  1.00  0.00    +0.000 C 
ATOM     74  C52 UNL A   1      42.093  25.301  27.269  1.00  0.00    +0.000 C 
ATOM     75  C53 UNL A   1      43.446  25.812  27.044  1.00  0.00    +0.000 C 
ATOM     76  N6  UNL A   1      43.381  27.118  27.463  1.00  0.00    +0.000 N 
ATOM     77  C54 UNL A   1      42.133  31.084  29.044  1.00  0.00    +0.000 C 
ATOM     78  C55 UNL A   1      43.179  31.890  28.932  1.00  0.00    +0.000 C 
ATOM     79  C56 UNL A   1      47.957  25.686  25.969  1.00  0.00    +0.000 C 
ATOM     80  C57 UNL A   1      46.904  24.889  25.863  1.00  0.00    +0.000 C 
BRANCH   28   29
ATOM     33  F2  UNL A   1      51.953  27.495  23.183  1.00  0.00    +0.000 F 
ATOM     34  C27 UNL A   1      52.553  27.454  25.466  1.00  0.00    +0.000 C 
ATOM     35  F3  UNL A   1      53.838  27.260  25.139  1.00  0.00    +0.000 F 
ATOM     36  C28 UNL A   1      52.177  27.515  26.800  1.00  0.00    +0.000 C 
ATOM     37  F4  UNL A   1      53.103  27.403  27.762  1.00  0.00    +0.000 F 
ATOM     38  C29 UNL A   1      50.838  27.690  27.140  1.00  0.00    +0.000 C 
ATOM     39  F5  UNL A   1      50.504  27.730  28.439  1.00  0.00    +0.000 F 
ATOM     29  C24 UNL A   1      49.853  27.830  26.152  1.00  0.00    +0.000 C 
ATOM     30  C25 UNL A   1      50.260  27.789  24.810  1.00  0.00    +0.000 C 
ATOM     31  F1  UNL A   1      49.357  27.907  23.826  1.00  0.00    +0.000 F 
ATOM     32  C26 UNL A   1      51.596  27.583  24.472  1.00  0.00    +0.000 C 
ENDBRANCH   28   29
BRANCH   45   46
ATOM     46  C35 UNL A   1      45.701  33.200  28.582  1.00  0.00    +0.000 C 
ATOM     47  C36 UNL A   1      45.433  34.196  27.632  1.00  0.00    +0.000 C 
ATOM     48  F6  UNL A   1      45.092  33.859  26.379  1.00  0.00    +0.000 F 
ATOM     49  C37 UNL A   1      45.549  35.546  27.957  1.00  0.00    +0.000 C 
ATOM     50  F7  UNL A   1      45.332  36.479  27.022  1.00  0.00    +0.000 F 
ATOM     51  C38 UNL A   1      45.904  35.923  29.244  1.00  0.00    +0.000 C 
ATOM     52  F8  UNL A   1      46.009  37.222  29.557  1.00  0.00    +0.000 F 
ATOM     53  C39 UNL A   1      46.157  34.955  30.204  1.00  0.00    +0.000 C 
ATOM     54  F9  UNL A   1      46.487  35.319  31.451  1.00  0.00    +0.000 F 
ATOM     55  C40 UNL A   1      46.069  33.606  29.874  1.00  0.00    +0.000 C 
ATOM     56  F10 UNL A   1      46.330  32.692  30.821  1.00  0.00    +0.000 F 
ENDBRANCH   45   46
BRANCH   60   61
ATOM     65  F12 UNL A   1      38.253  28.439  31.859  1.00  0.00    +0.000 F 
ATOM     66  C47 UNL A   1      37.616  29.076  29.676  1.00  0.00    +0.000 C 
ATOM     67  F13 UNL A   1      36.339  29.191  30.065  1.00  0.00    +0.000 F 
ATOM     68  C48 UNL A   1      37.967  29.321  28.357  1.00  0.00    +0.000 C 
ATOM     69  F14 UNL A   1      37.030  29.693  27.474  1.00  0.00    +0.000 F 
ATOM     70  C49 UNL A   1      39.290  29.178  27.946  1.00  0.00    +0.000 C 
ATOM     71  F15 UNL A   1      39.598  29.408  26.661  1.00  0.00    +0.000 F 
ATOM     61  C44 UNL A   1      40.295  28.813  28.854  1.00  0.00    +0.000 C 
ATOM     62  C45 UNL A   1      39.920  28.587  30.186  1.00  0.00    +0.000 C 
ATOM     63  F11 UNL A   1      40.841  28.214  31.086  1.00  0.00    +0.000 F 
ATOM     64  C46 UNL A   1      38.591  28.703  30.590  1.00  0.00    +0.000 C 
ENDBRANCH   60   61
ENDBRANCH   23   24
ENDBRANCH   18   20
ENDBRANCH   17   18
ENDBRANCH   16   17
ENDBRANCH   15   16
ENDBRANCH   14   15
ENDBRANCH   13   14
ENDBRANCH   12   13
ENDBRANCH   11   12
ENDBRANCH   10   11
ENDBRANCH    8   10
ENDBRANCH    7    8
BRANCH   85   86
ATOM    151  H46 UNL A   1      33.521  21.627  21.484  1.00  0.00    +0.000 H 
ATOM     86  C63 UNL A   1      32.748  22.304  21.784  1.00  0.00    +0.000 C 
ATOM    150  H45 UNL A   1      31.828  21.768  21.891  1.00  0.00    +0.000 H 
ATOM    152  H47 UNL A   1      32.633  23.065  21.040  1.00  0.00    +0.000 H 
ENDBRANCH   85   86
BRANCH   91   92
ATOM     92  C69 UNL A   1      30.663  26.252  25.881  1.00  0.00    +0.000 C 
ATOM    157  H52 UNL A   1      30.648  26.796  26.802  1.00  0.00    +0.000 H 
ATOM    158  H53 UNL A   1      30.259  25.274  26.037  1.00  0.00    +0.000 H 
ATOM    159  H54 UNL A   1      30.075  26.770  25.152  1.00  0.00    +0.000 H 
ENDBRANCH   91   92
BRANCH   95   96
ATOM    165  H60 UNL A   1      33.578  30.343  27.212  1.00  0.00    +0.000 H 
ATOM     96  O3  UNL A   1      33.092  30.248  26.378  1.00  0.00    +0.000 O 
ENDBRANCH   95   96
BRANCH   97   98
ATOM     98  C74 UNL A   1      30.943  29.193  24.787  1.00  0.00    +0.000 C 
ATOM    166  H61 UNL A   1      30.879  29.765  25.689  1.00  0.00    +0.000 H 
ATOM    167  H62 UNL A   1      30.273  28.362  24.843  1.00  0.00    +0.000 H 
ATOM    168  H63 UNL A   1      30.679  29.810  23.954  1.00  0.00    +0.000 H 
ENDBRANCH   97   98
BRANCH   97   99
ATOM    169  H64 UNL A   1      33.957  29.172  23.204  1.00  0.00    +0.000 H 
ATOM    170  H65 UNL A   1      33.078  30.560  23.796  1.00  0.00    +0.000 H 
ATOM     99  C75 UNL A   1      32.990  29.547  23.465  1.00  0.00    +0.000 C 
ATOM    171  H66 UNL A   1      32.349  29.506  22.609  1.00  0.00    +0.000 H 
ENDBRANCH   97   99
BRANCH  103  104
ATOM    177  H72 UNL A   1      30.545  23.557  22.146  1.00  0.00    +0.000 H 
ATOM    178  H73 UNL A   1      30.050  24.719  23.354  1.00  0.00    +0.000 H 
ATOM    179  H74 UNL A   1      30.386  23.067  23.815  1.00  0.00    +0.000 H 
ATOM    104  C80 UNL A   1      30.668  23.867  23.163  1.00  0.00    +0.000 C 
ENDBRANCH  103  104
TORSDOF 23
ENDMDL
MODEL 6
REMARK VINA RESULT:     -11.5      4.774     10.440
ROOT
ATOM      2  C2  UNL A   1      30.163  29.779  23.339  1.00  0.00    +0.000 C 
ATOM      3  C3  UNL A   1      29.706  31.104  24.035  1.00  0.00    +0.000 C 
ATOM      5  C5  UNL A   1      30.632  31.587  25.163  1.00  0.00    +0.000 C 
ATOM      6  C6  UNL A   1      31.174  30.522  26.092  1.00  0.00    +0.000 C 
ATOM      7  C7  UNL A   1      31.450  29.126  25.502  1.00  0.00    +0.000 C 
ATOM    146  H41 UNL A   1      30.237  28.378  27.123  1.00  0.00    +0.000 H 
ATOM    147  H42 UNL A   1      32.026  28.304  27.373  1.00  0.00    +0.000 H 
ATOM    148  H43 UNL A   1      30.694  26.146  27.214  1.00  0.00    +0.000 H 
ATOM    149  H44 UNL A   1      32.253  26.384  26.336  1.00  0.00    +0.000 H 
ATOM    153  H48 UNL A   1      31.716  27.762  22.215  1.00  0.00    +0.000 H 
ATOM    154  H49 UNL A   1      33.559  26.160  22.552  1.00  0.00    +0.000 H 
ATOM    155  H50 UNL A   1      32.151  25.210  22.064  1.00  0.00    +0.000 H 
ATOM    156  H51 UNL A   1      33.115  25.599  24.904  1.00  0.00    +0.000 H 
ATOM    160  H55 UNL A   1      35.085  25.139  25.239  1.00  0.00    +0.000 H 
ATOM    161  H56 UNL A   1      35.375  25.025  23.483  1.00  0.00    +0.000 H 
ATOM    162  H57 UNL A   1      37.158  24.031  24.855  1.00  0.00    +0.000 H 
ATOM    163  H58 UNL A   1      36.370  22.926  23.707  1.00  0.00    +0.000 H 
ATOM    164  H59 UNL A   1      35.939  23.059  26.644  1.00  0.00    +0.000 H 
ATOM    172  H67 UNL A   1      33.683  23.546  26.272  1.00  0.00    +0.000 H 
ATOM    173  H68 UNL A   1      31.939  21.767  26.320  1.00  0.00    +0.000 H 
ATOM    174  H69 UNL A   1      31.755  21.989  24.601  1.00  0.00    +0.000 H 
ATOM    175  H70 UNL A   1      31.490  24.163  26.666  1.00  0.00    +0.000 H 
ATOM    176  H71 UNL A   1      30.151  23.329  25.850  1.00  0.00    +0.000 H 
ATOM    180  H75 UNL A   1      29.418  28.609  24.743  1.00  0.00    +0.000 H 
ATOM     83  C60 UNL A   1      31.198  28.144  26.714  1.00  0.00    +0.000 C 
ATOM     84  C61 UNL A   1      31.217  26.636  26.419  1.00  0.00    +0.000 C 
ATOM     85  C62 UNL A   1      30.576  26.163  25.069  1.00  0.00    +0.000 C 
ATOM     87  C64 UNL A   1      30.863  27.264  24.009  1.00  0.00    +0.000 C 
ATOM     88  C65 UNL A   1      31.689  27.051  22.963  1.00  0.00    +0.000 C 
ATOM     89  C66 UNL A   1      32.574  25.838  22.820  1.00  0.00    +0.000 C 
ATOM     90  C67 UNL A   1      32.655  25.016  24.133  1.00  0.00    +0.000 C 
ATOM     91  C68 UNL A   1      33.732  23.849  24.166  1.00  0.00    +0.000 C 
ATOM     93  C70 UNL A   1      35.139  24.497  24.384  1.00  0.00    +0.000 C 
ATOM     94  C71 UNL A   1      36.267  23.491  24.610  1.00  0.00    +0.000 C 
ATOM     95  C72 UNL A   1      35.980  22.495  25.735  1.00  0.00    +0.000 C 
ATOM     97  C73 UNL A   1      34.585  21.801  25.661  1.00  0.00    +0.000 C 
ATOM    100  C76 UNL A   1      33.505  22.924  25.420  1.00  0.00    +0.000 C 
ATOM    101  C77 UNL A   1      32.046  22.464  25.514  1.00  0.00    +0.000 C 
ATOM    102  C78 UNL A   1      31.158  23.684  25.770  1.00  0.00    +0.000 C 
ATOM    103  C79 UNL A   1      31.187  24.722  24.617  1.00  0.00    +0.000 C 
ATOM    105  C81 UNL A   1      30.431  28.689  24.411  1.00  0.00    +0.000 C 
ATOM    109  H4  UNL A   1      31.070  29.967  22.802  1.00  0.00    +0.000 H 
ATOM    110  H5  UNL A   1      28.760  30.806  24.439  1.00  0.00    +0.000 H 
ATOM    114  H9  UNL A   1      30.082  32.288  25.757  1.00  0.00    +0.000 H 
ATOM    115  H10 UNL A   1      31.488  31.997  24.670  1.00  0.00    +0.000 H 
ATOM    116  H11 UNL A   1      30.466  30.400  26.884  1.00  0.00    +0.000 H 
ATOM    117  H12 UNL A   1      32.137  30.886  26.384  1.00  0.00    +0.000 H 
ENDROOT
BRANCH    2    1
ATOM      1  C1  UNL A   1      29.111  29.304  22.322  1.00  0.00    +0.000 C 
ATOM    106  H1  UNL A   1      28.778  30.136  21.738  1.00  0.00    +0.000 H 
ATOM    107  H2  UNL A   1      28.279  28.878  22.844  1.00  0.00    +0.000 H 
ATOM    108  H3  UNL A   1      29.544  28.567  21.679  1.00  0.00    +0.000 H 
ENDBRANCH    2    1
BRANCH    3    4
ATOM    113  H8  UNL A   1      29.562  31.951  22.072  1.00  0.00    +0.000 H 
ATOM      4  C4  UNL A   1      29.528  32.295  23.084  1.00  0.00    +0.000 C 
ATOM    111  H6  UNL A   1      30.315  33.001  23.247  1.00  0.00    +0.000 H 
ATOM    112  H7  UNL A   1      28.584  32.762  23.270  1.00  0.00    +0.000 H 
ENDBRANCH    3    4
BRANCH    7    8
ATOM      9  O1  UNL A   1      33.327  29.407  23.946  1.00  0.00    +0.000 O 
ATOM      8  C8  UNL A   1      32.955  28.984  25.048  1.00  0.00    +0.000 C 
BRANCH    8   10
ATOM     10  N1  UNL A   1      33.965  28.460  25.817  1.00  0.00    +0.000 N 
ATOM    118  H13 UNL A   1      34.334  27.597  25.522  1.00  0.00    +0.000 H 
BRANCH   10   11
ATOM     11  C9  UNL A   1      34.551  29.031  27.015  1.00  0.00    +0.000 C 
ATOM    119  H14 UNL A   1      35.553  28.665  27.103  1.00  0.00    +0.000 H 
ATOM    120  H15 UNL A   1      33.923  28.736  27.830  1.00  0.00    +0.000 H 
BRANCH   11   12
ATOM    121  H16 UNL A   1      33.866  30.912  26.338  1.00  0.00    +0.000 H 
ATOM    122  H17 UNL A   1      35.617  30.798  26.804  1.00  0.00    +0.000 H 
ATOM     12  C10 UNL A   1      34.599  30.563  27.036  1.00  0.00    +0.000 C 
BRANCH   12   13
ATOM    123  H18 UNL A   1      35.217  31.163  28.965  1.00  0.00    +0.000 H 
ATOM    124  H19 UNL A   1      33.441  30.825  28.730  1.00  0.00    +0.000 H 
ATOM     13  C11 UNL A   1      34.337  31.282  28.368  1.00  0.00    +0.000 C 
BRANCH   13   14
ATOM    126  H21 UNL A   1      34.272  33.102  27.376  1.00  0.00    +0.000 H 
ATOM    125  H20 UNL A   1      32.968  32.871  28.617  1.00  0.00    +0.000 H 
ATOM     14  C12 UNL A   1      34.002  32.777  28.360  1.00  0.00    +0.000 C 
BRANCH   14   15
ATOM    127  H22 UNL A   1      34.638  34.701  28.940  1.00  0.00    +0.000 H 
ATOM     15  C13 UNL A   1      34.785  33.700  29.290  1.00  0.00    +0.000 C 
ATOM    128  H23 UNL A   1      35.790  33.331  29.243  1.00  0.00    +0.000 H 
BRANCH   15   16
ATOM    129  H24 UNL A   1      33.392  33.817  30.877  1.00  0.00    +0.000 H 
ATOM    130  H25 UNL A   1      35.014  34.476  31.220  1.00  0.00    +0.000 H 
ATOM     16  C14 UNL A   1      34.448  33.686  30.773  1.00  0.00    +0.000 C 
BRANCH   16   17
ATOM     17  N2  UNL A   1      34.823  32.471  31.464  1.00  0.00    +0.000 N 
ATOM    131  H26 UNL A   1      34.191  31.722  31.370  1.00  0.00    +0.000 H 
BRANCH   17   18
ATOM     18  C15 UNL A   1      35.937  32.210  32.235  1.00  0.00    +0.000 C 
ATOM     19  O2  UNL A   1      35.899  32.407  33.440  1.00  0.00    +0.000 O 
BRANCH   18   20
ATOM    132  H27 UNL A   1      36.540  32.084  29.659  1.00  0.00    +0.000 H 
ATOM    133  H28 UNL A   1      38.535  31.211  28.590  1.00  0.00    +0.000 H 
ATOM    144  H39 UNL A   1      40.132  30.261  32.367  1.00  0.00    +0.000 H 
ATOM     81  C58 UNL A   1      39.360  30.624  31.785  1.00  0.00    +0.000 C 
ATOM     82  C59 UNL A   1      38.174  31.043  32.390  1.00  0.00    +0.000 C 
ATOM    145  H40 UNL A   1      38.040  30.912  33.406  1.00  0.00    +0.000 H 
ATOM     20  C16 UNL A   1      37.168  31.639  31.627  1.00  0.00    +0.000 C 
ATOM     21  C17 UNL A   1      37.299  31.687  30.234  1.00  0.00    +0.000 C 
ATOM     22  C18 UNL A   1      38.458  31.199  29.619  1.00  0.00    +0.000 C 
ATOM     23  C19 UNL A   1      39.513  30.692  30.392  1.00  0.00    +0.000 C 
BRANCH   23   24
ATOM    134  H29 UNL A   1      47.754  32.547  27.661  1.00  0.00    +0.000 H 
ATOM    135  H30 UNL A   1      48.604  30.310  26.626  1.00  0.00    +0.000 H 
ATOM    136  H31 UNL A   1      44.708  29.750  27.915  1.00  0.00    +0.000 H 
ATOM    137  H32 UNL A   1      39.717  25.894  28.879  1.00  0.00    +0.000 H 
ATOM    138  H33 UNL A   1      38.874  28.088  29.840  1.00  0.00    +0.000 H 
ATOM    139  H34 UNL A   1      42.757  28.701  28.489  1.00  0.00    +0.000 H 
ATOM    140  H35 UNL A   1      44.229  24.327  26.481  1.00  0.00    +0.000 H 
ATOM    141  H36 UNL A   1      46.509  25.420  26.085  1.00  0.00    +0.000 H 
ATOM    142  H37 UNL A   1      43.048  34.135  29.688  1.00  0.00    +0.000 H 
ATOM    143  H38 UNL A   1      40.951  32.946  30.551  1.00  0.00    +0.000 H 
ATOM     24  C20 UNL A   1      40.771  30.215  29.756  1.00  0.00    +0.000 C 
ATOM     25  C21 UNL A   1      41.919  31.163  29.538  1.00  0.00    +0.000 C 
ATOM     26  N3  UNL A   1      43.071  30.952  28.953  1.00  0.00    +0.000 N 
ATOM     27  C22 UNL A   1      43.741  32.169  28.981  1.00  0.00    +0.000 C 
ATOM     28  C23 UNL A   1      44.996  32.457  28.558  1.00  0.00    +0.000 C 
ATOM     40  C30 UNL A   1      45.897  31.495  27.979  1.00  0.00    +0.000 C 
ATOM     41  C31 UNL A   1      47.210  31.675  27.577  1.00  0.00    +0.000 C 
ATOM     42  C32 UNL A   1      47.670  30.470  27.036  1.00  0.00    +0.000 C 
ATOM     43  C33 UNL A   1      46.662  29.526  27.144  1.00  0.00    +0.000 C 
ATOM     44  N4  UNL A   1      45.577  30.170  27.720  1.00  0.00    +0.000 N 
ATOM     45  C34 UNL A   1      46.683  28.141  26.752  1.00  0.00    +0.000 C 
ATOM     57  C41 UNL A   1      45.649  27.276  26.898  1.00  0.00    +0.000 C 
ATOM     58  N5  UNL A   1      44.390  27.505  27.438  1.00  0.00    +0.000 N 
ATOM     59  C42 UNL A   1      43.746  26.368  27.343  1.00  0.00    +0.000 C 
ATOM     60  C43 UNL A   1      42.352  26.025  27.798  1.00  0.00    +0.000 C 
ATOM     72  C50 UNL A   1      41.606  26.966  28.409  1.00  0.00    +0.000 C 
ATOM     73  C51 UNL A   1      40.250  26.777  28.914  1.00  0.00    +0.000 C 
ATOM     74  C52 UNL A   1      39.809  27.934  29.432  1.00  0.00    +0.000 C 
ATOM     75  C53 UNL A   1      40.865  28.941  29.325  1.00  0.00    +0.000 C 
ATOM     76  N6  UNL A   1      41.894  28.278  28.704  1.00  0.00    +0.000 N 
ATOM     77  C54 UNL A   1      44.517  25.293  26.705  1.00  0.00    +0.000 C 
ATOM     78  C55 UNL A   1      45.683  25.887  26.490  1.00  0.00    +0.000 C 
ATOM     79  C56 UNL A   1      42.847  33.126  29.595  1.00  0.00    +0.000 C 
ATOM     80  C57 UNL A   1      41.737  32.541  30.020  1.00  0.00    +0.000 C 
BRANCH   28   29
ATOM     33  F2  UNL A   1      47.178  36.014  31.130  1.00  0.00    +0.000 F 
ATOM     34  C27 UNL A   1      46.395  36.516  28.960  1.00  0.00    +0.000 C 
ATOM     35  F3  UNL A   1      46.822  37.781  29.083  1.00  0.00    +0.000 F 
ATOM     36  C28 UNL A   1      45.754  36.110  27.799  1.00  0.00    +0.000 C 
ATOM     37  F4  UNL A   1      45.581  36.977  26.791  1.00  0.00    +0.000 F 
ATOM     38  C29 UNL A   1      45.286  34.803  27.680  1.00  0.00    +0.000 C 
ATOM     39  F5  UNL A   1      44.656  34.446  26.551  1.00  0.00    +0.000 F 
ATOM     29  C24 UNL A   1      45.473  33.872  28.713  1.00  0.00    +0.000 C 
ATOM     30  C25 UNL A   1      46.145  34.300  29.868  1.00  0.00    +0.000 C 
ATOM     31  F1  UNL A   1      46.339  33.452  30.889  1.00  0.00    +0.000 F 
ATOM     32  C26 UNL A   1      46.584  35.615  29.996  1.00  0.00    +0.000 C 
ENDBRANCH   28   29
BRANCH   45   46
ATOM     46  C35 UNL A   1      47.951  27.603  26.158  1.00  0.00    +0.000 C 
ATOM     47  C36 UNL A   1      48.993  27.118  26.963  1.00  0.00    +0.000 C 
ATOM     48  F6  UNL A   1      48.896  27.177  28.300  1.00  0.00    +0.000 F 
ATOM     49  C37 UNL A   1      50.156  26.604  26.396  1.00  0.00    +0.000 C 
ATOM     50  F7  UNL A   1      51.156  26.188  27.184  1.00  0.00    +0.000 F 
ATOM     51  C38 UNL A   1      50.286  26.535  25.016  1.00  0.00    +0.000 C 
ATOM     52  F8  UNL A   1      51.403  26.032  24.472  1.00  0.00    +0.000 F 
ATOM     53  C39 UNL A   1      49.261  26.992  24.202  1.00  0.00    +0.000 C 
ATOM     54  F9  UNL A   1      49.380  26.913  22.869  1.00  0.00    +0.000 F 
ATOM     55  C40 UNL A   1      48.109  27.532  24.766  1.00  0.00    +0.000 C 
ATOM     56  F10 UNL A   1      47.140  27.977  23.952  1.00  0.00    +0.000 F 
ENDBRANCH   45   46
BRANCH   60   61
ATOM     65  F12 UNL A   1      42.298  21.269  28.882  1.00  0.00    +0.000 F 
ATOM     66  C47 UNL A   1      40.794  22.055  27.240  1.00  0.00    +0.000 C 
ATOM     67  F13 UNL A   1      40.319  20.815  27.059  1.00  0.00    +0.000 F 
ATOM     68  C48 UNL A   1      40.294  23.108  26.489  1.00  0.00    +0.000 C 
ATOM     69  F14 UNL A   1      39.320  22.890  25.596  1.00  0.00    +0.000 F 
ATOM     70  C49 UNL A   1      40.803  24.394  26.661  1.00  0.00    +0.000 C 
ATOM     71  F15 UNL A   1      40.310  25.391  25.911  1.00  0.00    +0.000 F 
ATOM     61  C44 UNL A   1      41.806  24.656  27.606  1.00  0.00    +0.000 C 
ATOM     62  C45 UNL A   1      42.284  23.578  28.365  1.00  0.00    +0.000 C 
ATOM     63  F11 UNL A   1      43.258  23.774  29.265  1.00  0.00    +0.000 F 
ATOM     64  C46 UNL A   1      41.793  22.288  28.174  1.00  0.00    +0.000 C 
ENDBRANCH   60   61
ENDBRANCH   23   24
ENDBRANCH   18   20
ENDBRANCH   17   18
ENDBRANCH   16   17
ENDBRANCH   15   16
ENDBRANCH   14   15
ENDBRANCH   13   14
ENDBRANCH   12   13
ENDBRANCH   11   12
ENDBRANCH   10   11
ENDBRANCH    8   10
ENDBRANCH    7    8
BRANCH   85   86
ATOM    151  H46 UNL A   1      28.828  26.054  26.333  1.00  0.00    +0.000 H 
ATOM     86  C63 UNL A   1      29.044  26.032  25.284  1.00  0.00    +0.000 C 
ATOM    150  H45 UNL A   1      28.545  26.846  24.801  1.00  0.00    +0.000 H 
ATOM    152  H47 UNL A   1      28.703  25.106  24.869  1.00  0.00    +0.000 H 
ENDBRANCH   85   86
BRANCH   91   92
ATOM     92  C69 UNL A   1      33.741  23.102  22.818  1.00  0.00    +0.000 C 
ATOM    157  H52 UNL A   1      34.536  22.387  22.813  1.00  0.00    +0.000 H 
ATOM    158  H53 UNL A   1      33.886  23.804  22.024  1.00  0.00    +0.000 H 
ATOM    159  H54 UNL A   1      32.807  22.598  22.683  1.00  0.00    +0.000 H 
ENDBRANCH   91   92
BRANCH   95   96
ATOM    165  H60 UNL A   1      37.107  21.087  24.928  1.00  0.00    +0.000 H 
ATOM     96  O3  UNL A   1      37.037  21.536  25.785  1.00  0.00    +0.000 O 
ENDBRANCH   95   96
BRANCH   97   98
ATOM     98  C74 UNL A   1      34.558  20.655  24.627  1.00  0.00    +0.000 C 
ATOM    166  H61 UNL A   1      35.185  19.856  24.965  1.00  0.00    +0.000 H 
ATOM    167  H62 UNL A   1      34.915  21.016  23.686  1.00  0.00    +0.000 H 
ATOM    168  H63 UNL A   1      33.555  20.299  24.516  1.00  0.00    +0.000 H 
ENDBRANCH   97   98
BRANCH   97   99
ATOM    169  H64 UNL A   1      33.413  21.447  27.443  1.00  0.00    +0.000 H 
ATOM    170  H65 UNL A   1      35.138  21.372  27.706  1.00  0.00    +0.000 H 
ATOM     99  C75 UNL A   1      34.345  21.115  27.036  1.00  0.00    +0.000 C 
ATOM    171  H66 UNL A   1      34.318  20.053  26.905  1.00  0.00    +0.000 H 
ENDBRANCH   97   99
BRANCH  103  104
ATOM    177  H72 UNL A   1      30.722  24.396  22.525  1.00  0.00    +0.000 H 
ATOM    178  H73 UNL A   1      29.316  24.435  23.561  1.00  0.00    +0.000 H 
ATOM    179  H74 UNL A   1      30.354  23.030  23.548  1.00  0.00    +0.000 H 
ATOM    104  C80 UNL A   1      30.326  24.097  23.473  1.00  0.00    +0.000 C 
ENDBRANCH  103  104
TORSDOF 23
ENDMDL
MODEL 7
REMARK VINA RESULT:     -11.5      4.602      8.475
ROOT
ATOM      2  C2  UNL A   1      33.721  19.403  24.931  1.00  0.00    +0.000 C 
ATOM      3  C3  UNL A   1      34.855  18.366  24.637  1.00  0.00    +0.000 C 
ATOM      5  C5  UNL A   1      36.277  18.873  24.924  1.00  0.00    +0.000 C 
ATOM      6  C6  UNL A   1      36.581  20.297  24.512  1.00  0.00    +0.000 C 
ATOM      7  C7  UNL A   1      35.438  21.326  24.585  1.00  0.00    +0.000 C 
ATOM    146  H41 UNL A   1      35.932  21.781  22.533  1.00  0.00    +0.000 H 
ATOM    147  H42 UNL A   1      36.620  22.895  23.780  1.00  0.00    +0.000 H 
ATOM    148  H43 UNL A   1      34.916  23.779  22.116  1.00  0.00    +0.000 H 
ATOM    149  H44 UNL A   1      34.825  24.152  23.880  1.00  0.00    +0.000 H 
ATOM    153  H48 UNL A   1      32.201  21.429  26.085  1.00  0.00    +0.000 H 
ATOM    154  H49 UNL A   1      32.136  23.778  26.829  1.00  0.00    +0.000 H 
ATOM    155  H50 UNL A   1      30.814  23.580  25.674  1.00  0.00    +0.000 H 
ATOM    156  H51 UNL A   1      33.533  24.749  25.056  1.00  0.00    +0.000 H 
ATOM    160  H55 UNL A   1      34.131  26.288  26.274  1.00  0.00    +0.000 H 
ATOM    161  H56 UNL A   1      32.783  25.949  27.392  1.00  0.00    +0.000 H 
ATOM    162  H57 UNL A   1      33.842  28.141  27.741  1.00  0.00    +0.000 H 
ATOM    163  H58 UNL A   1      32.105  28.182  27.369  1.00  0.00    +0.000 H 
ATOM    164  H59 UNL A   1      34.343  28.822  25.523  1.00  0.00    +0.000 H 
ATOM    172  H67 UNL A   1      33.647  27.095  24.109  1.00  0.00    +0.000 H 
ATOM    173  H68 UNL A   1      32.188  27.532  22.137  1.00  0.00    +0.000 H 
ATOM    174  H69 UNL A   1      30.912  26.689  22.973  1.00  0.00    +0.000 H 
ATOM    175  H70 UNL A   1      33.639  25.557  22.383  1.00  0.00    +0.000 H 
ATOM    176  H71 UNL A   1      32.144  25.200  21.492  1.00  0.00    +0.000 H 
ATOM    180  H75 UNL A   1      33.954  20.366  23.223  1.00  0.00    +0.000 H 
ATOM     83  C60 UNL A   1      35.771  22.348  23.426  1.00  0.00    +0.000 C 
ATOM     84  C61 UNL A   1      34.719  23.422  23.106  1.00  0.00    +0.000 C 
ATOM     85  C62 UNL A   1      33.214  22.989  23.162  1.00  0.00    +0.000 C 
ATOM     87  C64 UNL A   1      33.075  21.944  24.307  1.00  0.00    +0.000 C 
ATOM     88  C65 UNL A   1      32.387  22.210  25.436  1.00  0.00    +0.000 C 
ATOM     89  C66 UNL A   1      31.875  23.578  25.811  1.00  0.00    +0.000 C 
ATOM     90  C67 UNL A   1      32.474  24.692  24.913  1.00  0.00    +0.000 C 
ATOM     91  C68 UNL A   1      32.182  26.188  25.358  1.00  0.00    +0.000 C 
ATOM     93  C70 UNL A   1      33.127  26.527  26.559  1.00  0.00    +0.000 C 
ATOM     94  C71 UNL A   1      33.089  27.991  26.995  1.00  0.00    +0.000 C 
ATOM     95  C72 UNL A   1      33.337  28.976  25.851  1.00  0.00    +0.000 C 
ATOM     97  C73 UNL A   1      32.482  28.726  24.571  1.00  0.00    +0.000 C 
ATOM    100  C76 UNL A   1      32.587  27.193  24.217  1.00  0.00    +0.000 C 
ATOM    101  C77 UNL A   1      31.973  26.785  22.873  1.00  0.00    +0.000 C 
ATOM    102  C78 UNL A   1      32.576  25.448  22.440  1.00  0.00    +0.000 C 
ATOM    103  C79 UNL A   1      32.253  24.281  23.410  1.00  0.00    +0.000 C 
ATOM    105  C81 UNL A   1      34.041  20.745  24.220  1.00  0.00    +0.000 C 
ATOM    109  H4  UNL A   1      33.676  19.573  25.987  1.00  0.00    +0.000 H 
ATOM    110  H5  UNL A   1      34.725  18.214  23.585  1.00  0.00    +0.000 H 
ATOM    114  H9  UNL A   1      36.961  18.231  24.409  1.00  0.00    +0.000 H 
ATOM    115  H10 UNL A   1      36.373  18.859  25.990  1.00  0.00    +0.000 H 
ATOM    116  H11 UNL A   1      36.922  20.269  23.499  1.00  0.00    +0.000 H 
ATOM    117  H12 UNL A   1      37.296  20.637  25.232  1.00  0.00    +0.000 H 
ENDROOT
BRANCH    2    1
ATOM      1  C1  UNL A   1      32.353  18.859  24.489  1.00  0.00    +0.000 C 
ATOM    106  H1  UNL A   1      31.812  19.627  23.977  1.00  0.00    +0.000 H 
ATOM    107  H2  UNL A   1      31.799  18.545  25.349  1.00  0.00    +0.000 H 
ATOM    108  H3  UNL A   1      32.495  18.025  23.833  1.00  0.00    +0.000 H 
ENDBRANCH    2    1
BRANCH    3    4
ATOM    113  H8  UNL A   1      33.826  16.534  25.060  1.00  0.00    +0.000 H 
ATOM      4  C4  UNL A   1      34.712  17.035  25.388  1.00  0.00    +0.000 C 
ATOM    111  H6  UNL A   1      34.645  17.225  26.439  1.00  0.00    +0.000 H 
ATOM    112  H7  UNL A   1      35.564  16.420  25.189  1.00  0.00    +0.000 H 
ENDBRANCH    3    4
BRANCH    7    8
ATOM      9  O1  UNL A   1      35.012  21.579  26.988  1.00  0.00    +0.000 O 
ATOM      8  C8  UNL A   1      35.454  22.103  25.958  1.00  0.00    +0.000 C 
BRANCH    8   10
ATOM     10  N1  UNL A   1      35.991  23.353  26.151  1.00  0.00    +0.000 N 
ATOM    118  H13 UNL A   1      35.439  23.990  26.658  1.00  0.00    +0.000 H 
BRANCH   10   11
ATOM     11  C9  UNL A   1      37.279  23.841  25.694  1.00  0.00    +0.000 C 
ATOM    119  H14 UNL A   1      37.238  24.911  25.666  1.00  0.00    +0.000 H 
ATOM    120  H15 UNL A   1      37.445  23.402  24.732  1.00  0.00    +0.000 H 
BRANCH   11   12
ATOM    121  H16 UNL A   1      38.122  23.417  27.584  1.00  0.00    +0.000 H 
ATOM    122  H17 UNL A   1      39.224  24.153  26.342  1.00  0.00    +0.000 H 
ATOM     12  C10 UNL A   1      38.467  23.431  26.570  1.00  0.00    +0.000 C 
BRANCH   12   13
ATOM    123  H18 UNL A   1      39.338  22.032  25.249  1.00  0.00    +0.000 H 
ATOM    124  H19 UNL A   1      38.442  21.366  26.691  1.00  0.00    +0.000 H 
ATOM     13  C11 UNL A   1      39.139  22.077  26.299  1.00  0.00    +0.000 C 
BRANCH   13   14
ATOM    126  H21 UNL A   1      41.211  22.119  26.373  1.00  0.00    +0.000 H 
ATOM    125  H20 UNL A   1      40.397  22.165  27.994  1.00  0.00    +0.000 H 
ATOM     14  C12 UNL A   1      40.448  21.732  27.017  1.00  0.00    +0.000 C 
BRANCH   14   15
ATOM    127  H22 UNL A   1      40.009  19.797  27.727  1.00  0.00    +0.000 H 
ATOM     15  C13 UNL A   1      40.813  20.261  27.192  1.00  0.00    +0.000 C 
ATOM    128  H23 UNL A   1      41.758  20.281  27.693  1.00  0.00    +0.000 H 
BRANCH   15   16
ATOM    129  H24 UNL A   1      40.756  19.994  25.094  1.00  0.00    +0.000 H 
ATOM    130  H25 UNL A   1      40.509  18.520  26.070  1.00  0.00    +0.000 H 
ATOM     16  C14 UNL A   1      41.065  19.426  25.946  1.00  0.00    +0.000 C 
BRANCH   16   17
ATOM     17  N2  UNL A   1      42.445  19.036  25.752  1.00  0.00    +0.000 N 
ATOM    131  H26 UNL A   1      42.669  18.123  26.044  1.00  0.00    +0.000 H 
BRANCH   17   18
ATOM     18  C15 UNL A   1      43.493  19.758  25.219  1.00  0.00    +0.000 C 
ATOM     19  O2  UNL A   1      44.230  19.237  24.395  1.00  0.00    +0.000 O 
BRANCH   18   20
ATOM    132  H27 UNL A   1      44.202  20.700  27.592  1.00  0.00    +0.000 H 
ATOM    133  H28 UNL A   1      44.610  22.991  28.275  1.00  0.00    +0.000 H 
ATOM    144  H39 UNL A   1      43.763  24.298  24.363  1.00  0.00    +0.000 H 
ATOM     81  C58 UNL A   1      43.832  23.539  25.060  1.00  0.00    +0.000 C 
ATOM     82  C59 UNL A   1      43.510  22.231  24.694  1.00  0.00    +0.000 C 
ATOM    145  H40 UNL A   1      43.124  22.039  23.756  1.00  0.00    +0.000 H 
ATOM     20  C16 UNL A   1      43.707  21.181  25.594  1.00  0.00    +0.000 C 
ATOM     21  C17 UNL A   1      44.098  21.466  26.908  1.00  0.00    +0.000 C 
ATOM     22  C18 UNL A   1      44.350  22.786  27.297  1.00  0.00    +0.000 C 
ATOM     23  C19 UNL A   1      44.251  23.832  26.367  1.00  0.00    +0.000 C 
BRANCH   23   24
ATOM    134  H29 UNL A   1      41.373  31.578  29.611  1.00  0.00    +0.000 H 
ATOM    135  H30 UNL A   1      43.478  33.117  29.557  1.00  0.00    +0.000 H 
ATOM    136  H31 UNL A   1      44.524  29.425  27.999  1.00  0.00    +0.000 H 
ATOM    137  H32 UNL A   1      48.971  25.460  25.715  1.00  0.00    +0.000 H 
ATOM    138  H33 UNL A   1      46.907  23.980  25.721  1.00  0.00    +0.000 H 
ATOM    139  H34 UNL A   1      45.810  27.698  27.221  1.00  0.00    +0.000 H 
ATOM    140  H35 UNL A   1      49.947  30.555  27.001  1.00  0.00    +0.000 H 
ATOM    141  H36 UNL A   1      48.580  32.402  28.126  1.00  0.00    +0.000 H 
ATOM    142  H37 UNL A   1      40.395  26.583  27.917  1.00  0.00    +0.000 H 
ATOM    143  H38 UNL A   1      41.841  24.572  27.270  1.00  0.00    +0.000 H 
ATOM     24  C20 UNL A   1      44.564  25.235  26.753  1.00  0.00    +0.000 C 
ATOM     25  C21 UNL A   1      43.480  26.138  27.277  1.00  0.00    +0.000 C 
ATOM     26  N3  UNL A   1      43.542  27.403  27.612  1.00  0.00    +0.000 N 
ATOM     27  C22 UNL A   1      42.253  27.760  27.986  1.00  0.00    +0.000 C 
ATOM     28  C23 UNL A   1      41.809  28.945  28.474  1.00  0.00    +0.000 C 
ATOM     40  C30 UNL A   1      42.647  30.092  28.703  1.00  0.00    +0.000 C 
ATOM     41  C31 UNL A   1      42.304  31.316  29.252  1.00  0.00    +0.000 C 
ATOM     42  C32 UNL A   1      43.437  32.135  29.238  1.00  0.00    +0.000 C 
ATOM     43  C33 UNL A   1      44.498  31.408  28.723  1.00  0.00    +0.000 C 
ATOM     44  N4  UNL A   1      43.998  30.157  28.394  1.00  0.00    +0.000 N 
ATOM     45  C34 UNL A   1      45.866  31.821  28.544  1.00  0.00    +0.000 C 
ATOM     57  C41 UNL A   1      46.852  31.042  28.035  1.00  0.00    +0.000 C 
ATOM     58  N5  UNL A   1      46.785  29.726  27.594  1.00  0.00    +0.000 N 
ATOM     59  C42 UNL A   1      47.991  29.423  27.182  1.00  0.00    +0.000 C 
ATOM     60  C43 UNL A   1      48.507  28.120  26.629  1.00  0.00    +0.000 C 
ATOM     72  C50 UNL A   1      47.671  27.069  26.529  1.00  0.00    +0.000 C 
ATOM     73  C51 UNL A   1      48.030  25.746  26.028  1.00  0.00    +0.000 C 
ATOM     74  C52 UNL A   1      46.941  24.960  26.042  1.00  0.00    +0.000 C 
ATOM     75  C53 UNL A   1      45.811  25.716  26.584  1.00  0.00    +0.000 C 
ATOM     76  N6  UNL A   1      46.337  26.957  26.844  1.00  0.00    +0.000 N 
ATOM     77  C54 UNL A   1      48.956  30.525  27.289  1.00  0.00    +0.000 C 
ATOM     78  C55 UNL A   1      48.222  31.474  27.852  1.00  0.00    +0.000 C 
ATOM     79  C56 UNL A   1      41.419  26.595  27.788  1.00  0.00    +0.000 C 
ATOM     80  C57 UNL A   1      42.140  25.547  27.419  1.00  0.00    +0.000 C 
BRANCH   28   29
ATOM     33  F2  UNL A   1      37.149  29.740  27.178  1.00  0.00    +0.000 F 
ATOM     34  C27 UNL A   1      37.613  29.214  29.432  1.00  0.00    +0.000 C 
ATOM     35  F3  UNL A   1      36.311  29.304  29.735  1.00  0.00    +0.000 F 
ATOM     36  C28 UNL A   1      38.538  28.919  30.422  1.00  0.00    +0.000 C 
ATOM     37  F4  UNL A   1      38.127  28.702  31.679  1.00  0.00    +0.000 F 
ATOM     38  C29 UNL A   1      39.895  28.852  30.113  1.00  0.00    +0.000 C 
ATOM     39  F5  UNL A   1      40.766  28.581  31.096  1.00  0.00    +0.000 F 
ATOM     29  C24 UNL A   1      40.348  29.056  28.801  1.00  0.00    +0.000 C 
ATOM     30  C25 UNL A   1      39.391  29.329  27.812  1.00  0.00    +0.000 C 
ATOM     31  F1  UNL A   1      39.773  29.543  26.544  1.00  0.00    +0.000 F 
ATOM     32  C26 UNL A   1      38.038  29.426  28.130  1.00  0.00    +0.000 C 
ENDBRANCH   28   29
BRANCH   45   46
ATOM     46  C35 UNL A   1      46.239  33.209  28.972  1.00  0.00    +0.000 C 
ATOM     47  C36 UNL A   1      46.121  34.303  28.103  1.00  0.00    +0.000 C 
ATOM     48  F6  UNL A   1      45.719  34.120  26.836  1.00  0.00    +0.000 F 
ATOM     49  C37 UNL A   1      46.453  35.590  28.523  1.00  0.00    +0.000 C 
ATOM     50  F7  UNL A   1      46.376  36.614  27.662  1.00  0.00    +0.000 F 
ATOM     51  C38 UNL A   1      46.876  35.809  29.825  1.00  0.00    +0.000 C 
ATOM     52  F8  UNL A   1      47.187  37.049  30.229  1.00  0.00    +0.000 F 
ATOM     53  C39 UNL A   1      46.982  34.744  30.707  1.00  0.00    +0.000 C 
ATOM     54  F9  UNL A   1      47.378  34.957  31.969  1.00  0.00    +0.000 F 
ATOM     55  C40 UNL A   1      46.679  33.454  30.282  1.00  0.00    +0.000 C 
ATOM     56  F10 UNL A   1      46.802  32.442  31.154  1.00  0.00    +0.000 F 
ENDBRANCH   45   46
BRANCH   60   61
ATOM     65  F12 UNL A   1      53.233  27.697  27.757  1.00  0.00    +0.000 F 
ATOM     66  C47 UNL A   1      52.631  27.724  25.475  1.00  0.00    +0.000 C 
ATOM     67  F13 UNL A   1      53.917  27.614  25.117  1.00  0.00    +0.000 F 
ATOM     68  C48 UNL A   1      51.644  27.814  24.504  1.00  0.00    +0.000 C 
ATOM     69  F14 UNL A   1      51.975  27.771  23.207  1.00  0.00    +0.000 F 
ATOM     70  C49 UNL A   1      50.308  27.953  24.875  1.00  0.00    +0.000 C 
ATOM     71  F15 UNL A   1      49.376  28.052  23.915  1.00  0.00    +0.000 F 
ATOM     61  C44 UNL A   1      49.930  27.978  26.225  1.00  0.00    +0.000 C 
ATOM     62  C45 UNL A   1      50.943  27.867  27.189  1.00  0.00    +0.000 C 
ATOM     63  F11 UNL A   1      50.634  27.908  28.492  1.00  0.00    +0.000 F 
ATOM     64  C46 UNL A   1      52.282  27.756  26.816  1.00  0.00    +0.000 C 
ENDBRANCH   60   61
ENDBRANCH   23   24
ENDBRANCH   18   20
ENDBRANCH   17   18
ENDBRANCH   16   17
ENDBRANCH   15   16
ENDBRANCH   14   15
ENDBRANCH   13   14
ENDBRANCH   12   13
ENDBRANCH   11   12
ENDBRANCH   10   11
ENDBRANCH    8   10
ENDBRANCH    7    8
BRANCH   85   86
ATOM    151  H46 UNL A   1      33.343  22.852  21.010  1.00  0.00    +0.000 H 
ATOM     86  C63 UNL A   1      32.853  22.327  21.805  1.00  0.00    +0.000 C 
ATOM    150  H45 UNL A   1      33.176  21.307  21.808  1.00  0.00    +0.000 H 
ATOM    152  H47 UNL A   1      31.794  22.366  21.659  1.00  0.00    +0.000 H 
ENDBRANCH   85   86
BRANCH   91   92
ATOM     92  C69 UNL A   1      30.722  26.320  25.835  1.00  0.00    +0.000 C 
ATOM    157  H52 UNL A   1      30.528  25.591  26.593  1.00  0.00    +0.000 H 
ATOM    158  H53 UNL A   1      30.062  26.162  25.008  1.00  0.00    +0.000 H 
ATOM    159  H54 UNL A   1      30.565  27.301  26.236  1.00  0.00    +0.000 H 
ENDBRANCH   91   92
BRANCH   95   96
ATOM    165  H60 UNL A   1      33.148  30.294  27.311  1.00  0.00    +0.000 H 
ATOM     96  O3  UNL A   1      33.165  30.307  26.341  1.00  0.00    +0.000 O 
ENDBRANCH   95   96
BRANCH   97   98
ATOM     98  C74 UNL A   1      31.038  29.250  24.722  1.00  0.00    +0.000 C 
ATOM    166  H61 UNL A   1      30.935  29.742  25.667  1.00  0.00    +0.000 H 
ATOM    167  H62 UNL A   1      30.353  28.430  24.670  1.00  0.00    +0.000 H 
ATOM    168  H63 UNL A   1      30.826  29.943  23.935  1.00  0.00    +0.000 H 
ENDBRANCH   97   98
BRANCH   97   99
ATOM    169  H64 UNL A   1      33.868  29.015  22.937  1.00  0.00    +0.000 H 
ATOM    170  H65 UNL A   1      33.539  30.468  23.848  1.00  0.00    +0.000 H 
ATOM     99  C75 UNL A   1      33.108  29.582  23.432  1.00  0.00    +0.000 C 
ATOM    171  H66 UNL A   1      32.348  29.851  22.728  1.00  0.00    +0.000 H 
ENDBRANCH   97   99
BRANCH  103  104
ATOM    177  H72 UNL A   1      30.669  23.497  22.154  1.00  0.00    +0.000 H 
ATOM    178  H73 UNL A   1      30.156  24.793  23.208  1.00  0.00    +0.000 H 
ATOM    179  H74 UNL A   1      30.431  23.195  23.858  1.00  0.00    +0.000 H 
ATOM    104  C80 UNL A   1      30.759  23.913  23.136  1.00  0.00    +0.000 C 
ENDBRANCH  103  104
TORSDOF 23
ENDMDL
MODEL 8
REMARK VINA RESULT:     -11.3     23.585     28.516
ROOT
ATOM      2  C2  UNL A   1      46.343  42.362  23.475  1.00  0.00    +0.000 C 
ATOM      3  C3  UNL A   1      45.740  42.509  24.911  1.00  0.00    +0.000 C 
ATOM      5  C5  UNL A   1      45.147  43.893  25.218  1.00  0.00    +0.000 C 
ATOM      6  C6  UNL A   1      45.932  45.088  24.722  1.00  0.00    +0.000 C 
ATOM      7  C7  UNL A   1      46.721  44.935  23.408  1.00  0.00    +0.000 C 
ATOM    146  H41 UNL A   1      48.417  45.661  24.528  1.00  0.00    +0.000 H 
ATOM    147  H42 UNL A   1      47.549  46.886  23.522  1.00  0.00    +0.000 H 
ATOM    148  H43 UNL A   1      49.945  46.267  22.948  1.00  0.00    +0.000 H 
ATOM    149  H44 UNL A   1      48.657  46.405  21.691  1.00  0.00    +0.000 H 
ATOM    153  H48 UNL A   1      46.769  42.573  20.733  1.00  0.00    +0.000 H 
ATOM    154  H49 UNL A   1      47.097  44.088  18.816  1.00  0.00    +0.000 H 
ATOM    155  H50 UNL A   1      48.496  43.009  18.849  1.00  0.00    +0.000 H 
ATOM    156  H51 UNL A   1      48.414  45.821  19.956  1.00  0.00    +0.000 H 
ATOM    160  H55 UNL A   1      47.772  47.267  18.650  1.00  0.00    +0.000 H 
ATOM    161  H56 UNL A   1      47.231  46.013  17.502  1.00  0.00    +0.000 H 
ATOM    162  H57 UNL A   1      47.390  48.263  16.521  1.00  0.00    +0.000 H 
ATOM    163  H58 UNL A   1      48.391  47.017  15.744  1.00  0.00    +0.000 H 
ATOM    164  H59 UNL A   1      49.311  49.150  17.595  1.00  0.00    +0.000 H 
ATOM    172  H67 UNL A   1      50.081  47.510  19.074  1.00  0.00    +0.000 H 
ATOM    173  H68 UNL A   1      52.462  46.780  19.085  1.00  0.00    +0.000 H 
ATOM    174  H69 UNL A   1      51.930  45.247  18.448  1.00  0.00    +0.000 H 
ATOM    175  H70 UNL A   1      50.918  46.515  20.984  1.00  0.00    +0.000 H 
ATOM    176  H71 UNL A   1      52.100  45.194  20.877  1.00  0.00    +0.000 H 
ATOM    180  H75 UNL A   1      48.054  43.228  23.943  1.00  0.00    +0.000 H 
ATOM     83  C60 UNL A   1      47.958  45.900  23.592  1.00  0.00    +0.000 C 
ATOM     84  C61 UNL A   1      49.056  45.856  22.517  1.00  0.00    +0.000 C 
ATOM     85  C62 UNL A   1      49.424  44.450  21.928  1.00  0.00    +0.000 C 
ATOM     87  C64 UNL A   1      48.113  43.613  21.873  1.00  0.00    +0.000 C 
ATOM     88  C65 UNL A   1      47.544  43.254  20.704  1.00  0.00    +0.000 C 
ATOM     89  C66 UNL A   1      47.969  43.787  19.359  1.00  0.00    +0.000 C 
ATOM     90  C67 UNL A   1      48.922  45.005  19.488  1.00  0.00    +0.000 C 
ATOM     91  C68 UNL A   1      49.253  45.784  18.144  1.00  0.00    +0.000 C 
ATOM     93  C70 UNL A   1      48.018  46.679  17.790  1.00  0.00    +0.000 C 
ATOM     94  C71 UNL A   1      48.245  47.625  16.612  1.00  0.00    +0.000 C 
ATOM     95  C72 UNL A   1      49.489  48.502  16.764  1.00  0.00    +0.000 C 
ATOM     97  C73 UNL A   1      50.791  47.736  17.156  1.00  0.00    +0.000 C 
ATOM    100  C76 UNL A   1      50.441  46.791  18.368  1.00  0.00    +0.000 C 
ATOM    101  C77 UNL A   1      51.639  46.098  19.028  1.00  0.00    +0.000 C 
ATOM    102  C78 UNL A   1      51.240  45.655  20.437  1.00  0.00    +0.000 C 
ATOM    103  C79 UNL A   1      50.099  44.604  20.453  1.00  0.00    +0.000 C 
ATOM    105  C81 UNL A   1      47.339  43.522  23.204  1.00  0.00    +0.000 C 
ATOM    109  H4  UNL A   1      45.548  42.415  22.760  1.00  0.00    +0.000 H 
ATOM    110  H5  UNL A   1      46.607  42.339  25.515  1.00  0.00    +0.000 H 
ATOM    114  H9  UNL A   1      45.058  43.980  26.281  1.00  0.00    +0.000 H 
ATOM    115  H10 UNL A   1      44.216  43.926  24.691  1.00  0.00    +0.000 H 
ATOM    116  H11 UNL A   1      46.633  45.348  25.487  1.00  0.00    +0.000 H 
ATOM    117  H12 UNL A   1      45.188  45.827  24.506  1.00  0.00    +0.000 H 
ENDROOT
BRANCH    2    1
ATOM      1  C1  UNL A   1      47.029  40.997  23.306  1.00  0.00    +0.000 C 
ATOM    106  H1  UNL A   1      46.305  40.267  23.012  1.00  0.00    +0.000 H 
ATOM    107  H2  UNL A   1      47.473  40.704  24.235  1.00  0.00    +0.000 H 
ATOM    108  H3  UNL A   1      47.788  41.069  22.555  1.00  0.00    +0.000 H 
ENDBRANCH    2    1
BRANCH    3    4
ATOM    113  H8  UNL A   1      43.836  41.589  24.559  1.00  0.00    +0.000 H 
ATOM      4  C4  UNL A   1      44.646  41.487  25.250  1.00  0.00    +0.000 C 
ATOM    111  H6  UNL A   1      44.290  41.662  26.244  1.00  0.00    +0.000 H 
ATOM    112  H7  UNL A   1      45.049  40.498  25.184  1.00  0.00    +0.000 H 
ENDBRANCH    3    4
BRANCH    7    8
ATOM      9  O1  UNL A   1      46.293  46.344  21.444  1.00  0.00    +0.000 O 
ATOM      8  C8  UNL A   1      45.875  45.434  22.172  1.00  0.00    +0.000 C 
BRANCH    8   10
ATOM     10  N1  UNL A   1      44.680  44.894  21.764  1.00  0.00    +0.000 N 
ATOM    118  H13 UNL A   1      43.984  44.805  22.454  1.00  0.00    +0.000 H 
BRANCH   10   11
ATOM     11  C9  UNL A   1      44.326  44.439  20.433  1.00  0.00    +0.000 C 
ATOM    119  H14 UNL A   1      45.229  44.311  19.873  1.00  0.00    +0.000 H 
ATOM    120  H15 UNL A   1      43.678  45.184  20.020  1.00  0.00    +0.000 H 
BRANCH   11   12
ATOM    121  H16 UNL A   1      43.106  42.983  21.358  1.00  0.00    +0.000 H 
ATOM    122  H17 UNL A   1      44.279  42.391  20.106  1.00  0.00    +0.000 H 
ATOM     12  C10 UNL A   1      43.549  43.119  20.393  1.00  0.00    +0.000 C 
BRANCH   12   13
ATOM    123  H18 UNL A   1      42.033  41.975  19.468  1.00  0.00    +0.000 H 
ATOM    124  H19 UNL A   1      42.911  43.187  18.426  1.00  0.00    +0.000 H 
ATOM     13  C11 UNL A   1      42.428  42.963  19.354  1.00  0.00    +0.000 C 
BRANCH   13   14
ATOM    126  H21 UNL A   1      40.380  43.287  19.369  1.00  0.00    +0.000 H 
ATOM    125  H20 UNL A   1      41.350  44.541  20.253  1.00  0.00    +0.000 H 
ATOM     14  C12 UNL A   1      41.238  43.927  19.383  1.00  0.00    +0.000 C 
BRANCH   14   15
ATOM    127  H22 UNL A   1      40.659  45.787  18.579  1.00  0.00    +0.000 H 
ATOM     15  C13 UNL A   1      41.032  44.860  18.193  1.00  0.00    +0.000 C 
ATOM    128  H23 UNL A   1      40.369  44.322  17.547  1.00  0.00    +0.000 H 
BRANCH   15   16
ATOM    129  H24 UNL A   1      42.428  44.341  16.691  1.00  0.00    +0.000 H 
ATOM    130  H25 UNL A   1      43.038  45.416  17.978  1.00  0.00    +0.000 H 
ATOM     16  C14 UNL A   1      42.230  45.186  17.315  1.00  0.00    +0.000 C 
BRANCH   16   17
ATOM     17  N2  UNL A   1      42.055  46.344  16.465  1.00  0.00    +0.000 N 
ATOM    131  H26 UNL A   1      42.030  46.156  15.499  1.00  0.00    +0.000 H 
BRANCH   17   18
ATOM     18  C15 UNL A   1      41.919  47.672  16.810  1.00  0.00    +0.000 C 
ATOM     19  O2  UNL A   1      40.810  48.186  16.815  1.00  0.00    +0.000 O 
BRANCH   18   20
ATOM    132  H27 UNL A   1      44.357  47.599  15.778  1.00  0.00    +0.000 H 
ATOM    133  H28 UNL A   1      46.317  48.898  16.374  1.00  0.00    +0.000 H 
ATOM    144  H39 UNL A   1      44.077  50.908  19.318  1.00  0.00    +0.000 H 
ATOM     81  C58 UNL A   1      44.149  50.187  18.582  1.00  0.00    +0.000 C 
ATOM     82  C59 UNL A   1      43.050  49.376  18.299  1.00  0.00    +0.000 C 
ATOM    145  H40 UNL A   1      42.198  49.441  18.879  1.00  0.00    +0.000 H 
ATOM     20  C16 UNL A   1      43.098  48.476  17.231  1.00  0.00    +0.000 C 
ATOM     21  C17 UNL A   1      44.300  48.295  16.538  1.00  0.00    +0.000 C 
ATOM     22  C18 UNL A   1      45.426  49.057  16.871  1.00  0.00    +0.000 C 
ATOM     23  C19 UNL A   1      45.351  50.034  17.875  1.00  0.00    +0.000 C 
BRANCH   23   24
ATOM    134  H29 UNL A   1      49.954  57.464  16.321  1.00  0.00    +0.000 H 
ATOM    135  H30 UNL A   1      51.981  57.315  17.955  1.00  0.00    +0.000 H 
ATOM    136  H31 UNL A   1      49.688  53.897  18.410  1.00  0.00    +0.000 H 
ATOM    137  H32 UNL A   1      48.511  48.407  21.442  1.00  0.00    +0.000 H 
ATOM    138  H33 UNL A   1      46.566  48.530  19.813  1.00  0.00    +0.000 H 
ATOM    139  H34 UNL A   1      48.887  51.937  19.282  1.00  0.00    +0.000 H 
ATOM    140  H35 UNL A   1      52.768  51.476  22.453  1.00  0.00    +0.000 H 
ATOM    141  H36 UNL A   1      53.517  53.796  21.676  1.00  0.00    +0.000 H 
ATOM    142  H37 UNL A   1      45.936  54.128  15.093  1.00  0.00    +0.000 H 
ATOM    143  H38 UNL A   1      44.890  52.067  16.195  1.00  0.00    +0.000 H 
ATOM     24  C20 UNL A   1      46.525  50.886  18.207  1.00  0.00    +0.000 C 
ATOM     25  C21 UNL A   1      46.770  52.167  17.458  1.00  0.00    +0.000 C 
ATOM     26  N3  UNL A   1      47.763  53.014  17.563  1.00  0.00    +0.000 N 
ATOM     27  C22 UNL A   1      47.524  53.999  16.612  1.00  0.00    +0.000 C 
ATOM     28  C23 UNL A   1      48.230  55.131  16.367  1.00  0.00    +0.000 C 
ATOM     40  C30 UNL A   1      49.408  55.525  17.094  1.00  0.00    +0.000 C 
ATOM     41  C31 UNL A   1      50.157  56.682  16.963  1.00  0.00    +0.000 C 
ATOM     42  C32 UNL A   1      51.234  56.609  17.851  1.00  0.00    +0.000 C 
ATOM     43  C33 UNL A   1      51.132  55.429  18.569  1.00  0.00    +0.000 C 
ATOM     44  N4  UNL A   1      50.010  54.770  18.091  1.00  0.00    +0.000 N 
ATOM     45  C34 UNL A   1      51.993  54.936  19.613  1.00  0.00    +0.000 C 
ATOM     57  C41 UNL A   1      51.820  53.765  20.274  1.00  0.00    +0.000 C 
ATOM     58  N5  UNL A   1      50.821  52.814  20.117  1.00  0.00    +0.000 N 
ATOM     59  C42 UNL A   1      51.095  51.859  20.972  1.00  0.00    +0.000 C 
ATOM     60  C43 UNL A   1      50.333  50.591  21.257  1.00  0.00    +0.000 C 
ATOM     72  C50 UNL A   1      49.191  50.343  20.587  1.00  0.00    +0.000 C 
ATOM     73  C51 UNL A   1      48.343  49.169  20.766  1.00  0.00    +0.000 C 
ATOM     74  C52 UNL A   1      47.309  49.240  19.914  1.00  0.00    +0.000 C 
ATOM     75  C53 UNL A   1      47.403  50.483  19.147  1.00  0.00    +0.000 C 
ATOM     76  N6  UNL A   1      48.552  51.073  19.614  1.00  0.00    +0.000 N 
ATOM     77  C54 UNL A   1      52.320  52.085  21.751  1.00  0.00    +0.000 C 
ATOM     78  C55 UNL A   1      52.700  53.279  21.316  1.00  0.00    +0.000 C 
ATOM     79  C56 UNL A   1      46.321  53.619  15.905  1.00  0.00    +0.000 C 
ATOM     80  C57 UNL A   1      45.777  52.534  16.436  1.00  0.00    +0.000 C 
BRANCH   28   29
ATOM     33  F2  UNL A   1      45.806  59.091  14.797  1.00  0.00    +0.000 F 
ATOM     34  C27 UNL A   1      46.872  57.720  13.197  1.00  0.00    +0.000 C 
ATOM     35  F3  UNL A   1      46.446  58.519  12.209  1.00  0.00    +0.000 F 
ATOM     36  C28 UNL A   1      47.622  56.591  12.904  1.00  0.00    +0.000 C 
ATOM     37  F4  UNL A   1      47.940  56.311  11.633  1.00  0.00    +0.000 F 
ATOM     38  C29 UNL A   1      48.042  55.746  13.929  1.00  0.00    +0.000 C 
ATOM     39  F5  UNL A   1      48.753  54.654  13.611  1.00  0.00    +0.000 F 
ATOM     29  C24 UNL A   1      47.740  56.029  15.269  1.00  0.00    +0.000 C 
ATOM     30  C25 UNL A   1      47.000  57.190  15.543  1.00  0.00    +0.000 C 
ATOM     31  F1  UNL A   1      46.674  57.501  16.806  1.00  0.00    +0.000 F 
ATOM     32  C26 UNL A   1      46.555  58.016  14.514  1.00  0.00    +0.000 C 
ENDBRANCH   28   29
BRANCH   45   46
ATOM     46  C35 UNL A   1      53.158  55.790  20.019  1.00  0.00    +0.000 C 
ATOM     47  C36 UNL A   1      53.011  56.850  20.926  1.00  0.00    +0.000 C 
ATOM     48  F6  UNL A   1      51.800  57.159  21.414  1.00  0.00    +0.000 F 
ATOM     49  C37 UNL A   1      54.106  57.621  21.308  1.00  0.00    +0.000 C 
ATOM     50  F7  UNL A   1      53.936  58.657  22.141  1.00  0.00    +0.000 F 
ATOM     51  C38 UNL A   1      55.370  57.328  20.816  1.00  0.00    +0.000 C 
ATOM     52  F8  UNL A   1      56.423  58.067  21.191  1.00  0.00    +0.000 F 
ATOM     53  C39 UNL A   1      55.540  56.273  19.932  1.00  0.00    +0.000 C 
ATOM     54  F9  UNL A   1      56.762  55.981  19.467  1.00  0.00    +0.000 F 
ATOM     55  C40 UNL A   1      54.443  55.519  19.527  1.00  0.00    +0.000 C 
ATOM     56  F10 UNL A   1      54.637  54.512  18.662  1.00  0.00    +0.000 F 
ENDBRANCH   45   46
BRANCH   60   61
ATOM     65  F12 UNL A   1      53.321  47.006  22.676  1.00  0.00    +0.000 F 
ATOM     66  C47 UNL A   1      51.722  47.801  24.221  1.00  0.00    +0.000 C 
ATOM     67  F13 UNL A   1      52.148  46.923  25.138  1.00  0.00    +0.000 F 
ATOM     68  C48 UNL A   1      50.672  48.659  24.514  1.00  0.00    +0.000 C 
ATOM     69  F14 UNL A   1      50.096  48.624  25.723  1.00  0.00    +0.000 F 
ATOM     70  C49 UNL A   1      50.214  49.558  23.553  1.00  0.00    +0.000 C 
ATOM     71  F15 UNL A   1      49.187  50.365  23.858  1.00  0.00    +0.000 F 
ATOM     61  C44 UNL A   1      50.813  49.633  22.287  1.00  0.00    +0.000 C 
ATOM     62  C45 UNL A   1      51.885  48.768  22.020  1.00  0.00    +0.000 C 
ATOM     63  F11 UNL A   1      52.476  48.787  20.817  1.00  0.00    +0.000 F 
ATOM     64  C46 UNL A   1      52.325  47.851  22.973  1.00  0.00    +0.000 C 
ENDBRANCH   60   61
ENDBRANCH   23   24
ENDBRANCH   18   20
ENDBRANCH   17   18
ENDBRANCH   16   17
ENDBRANCH   15   16
ENDBRANCH   14   15
ENDBRANCH   13   14
ENDBRANCH   12   13
ENDBRANCH   11   12
ENDBRANCH   10   11
ENDBRANCH    8   10
ENDBRANCH    7    8
BRANCH   85   86
ATOM    151  H46 UNL A   1      51.307  43.479  22.346  1.00  0.00    +0.000 H 
ATOM     86  C63 UNL A   1      50.435  43.774  22.893  1.00  0.00    +0.000 C 
ATOM    150  H45 UNL A   1      50.713  44.467  23.660  1.00  0.00    +0.000 H 
ATOM    152  H47 UNL A   1      49.983  42.912  23.337  1.00  0.00    +0.000 H 
ENDBRANCH   85   86
BRANCH   91   92
ATOM     92  C69 UNL A   1      49.474  44.782  16.995  1.00  0.00    +0.000 C 
ATOM    157  H52 UNL A   1      48.554  44.285  16.773  1.00  0.00    +0.000 H 
ATOM    158  H53 UNL A   1      50.209  44.062  17.288  1.00  0.00    +0.000 H 
ATOM    159  H54 UNL A   1      49.815  45.307  16.125  1.00  0.00    +0.000 H 
ENDBRANCH   91   92
BRANCH   95   96
ATOM    165  H60 UNL A   1      48.908  49.843  15.433  1.00  0.00    +0.000 H 
ATOM     96  O3  UNL A   1      49.671  49.258  15.566  1.00  0.00    +0.000 O 
ENDBRANCH   95   96
BRANCH   97   98
ATOM     98  C74 UNL A   1      51.432  47.019  15.949  1.00  0.00    +0.000 C 
ATOM    166  H61 UNL A   1      50.896  47.273  15.058  1.00  0.00    +0.000 H 
ATOM    167  H62 UNL A   1      51.391  45.961  16.100  1.00  0.00    +0.000 H 
ATOM    168  H63 UNL A   1      52.451  47.327  15.852  1.00  0.00    +0.000 H 
ENDBRANCH   97   98
BRANCH   97   99
ATOM    169  H64 UNL A   1      51.645  49.721  17.072  1.00  0.00    +0.000 H 
ATOM    170  H65 UNL A   1      52.818  48.459  17.364  1.00  0.00    +0.000 H 
ATOM     99  C75 UNL A   1      51.832  48.806  17.594  1.00  0.00    +0.000 C 
ATOM    171  H66 UNL A   1      51.751  48.973  18.648  1.00  0.00    +0.000 H 
ENDBRANCH   97   99
BRANCH  103  104
ATOM    177  H72 UNL A   1      50.008  42.511  19.897  1.00  0.00    +0.000 H 
ATOM    178  H73 UNL A   1      51.465  42.949  20.755  1.00  0.00    +0.000 H 
ATOM    179  H74 UNL A   1      51.268  43.402  19.080  1.00  0.00    +0.000 H 
ATOM    104  C80 UNL A   1      50.763  43.260  20.012  1.00  0.00    +0.000 C 
ENDBRANCH  103  104
TORSDOF 23
ENDMDL
MODEL 9
REMARK VINA RESULT:     -11.0      0.794      6.715
ROOT
ATOM      2  C2  UNL A   1      33.667  19.303  24.877  1.00  0.00    +0.000 C 
ATOM      3  C3  UNL A   1      34.818  18.280  24.599  1.00  0.00    +0.000 C 
ATOM      5  C5  UNL A   1      36.232  18.820  24.861  1.00  0.00    +0.000 C 
ATOM      6  C6  UNL A   1      36.506  20.239  24.411  1.00  0.00    +0.000 C 
ATOM      7  C7  UNL A   1      35.344  21.248  24.467  1.00  0.00    +0.000 C 
ATOM    146  H41 UNL A   1      35.813  21.660  22.401  1.00  0.00    +0.000 H 
ATOM    147  H42 UNL A   1      36.490  22.818  23.614  1.00  0.00    +0.000 H 
ATOM    148  H43 UNL A   1      34.756  23.628  21.943  1.00  0.00    +0.000 H 
ATOM    149  H44 UNL A   1      34.673  24.044  23.698  1.00  0.00    +0.000 H 
ATOM    153  H48 UNL A   1      32.119  21.328  25.992  1.00  0.00    +0.000 H 
ATOM    154  H49 UNL A   1      32.015  23.694  26.678  1.00  0.00    +0.000 H 
ATOM    155  H50 UNL A   1      30.688  23.443  25.539  1.00  0.00    +0.000 H 
ATOM    156  H51 UNL A   1      33.380  24.646  24.869  1.00  0.00    +0.000 H 
ATOM    160  H55 UNL A   1      33.958  26.226  26.043  1.00  0.00    +0.000 H 
ATOM    161  H56 UNL A   1      32.626  25.891  27.180  1.00  0.00    +0.000 H 
ATOM    162  H57 UNL A   1      33.646  28.110  27.465  1.00  0.00    +0.000 H 
ATOM    163  H58 UNL A   1      31.906  28.109  27.108  1.00  0.00    +0.000 H 
ATOM    164  H59 UNL A   1      34.117  28.744  25.227  1.00  0.00    +0.000 H 
ATOM    172  H67 UNL A   1      33.442  26.969  23.863  1.00  0.00    +0.000 H 
ATOM    173  H68 UNL A   1      31.960  27.329  21.893  1.00  0.00    +0.000 H 
ATOM    174  H69 UNL A   1      30.706  26.484  22.761  1.00  0.00    +0.000 H 
ATOM    175  H70 UNL A   1      33.449  25.389  22.176  1.00  0.00    +0.000 H 
ATOM    176  H71 UNL A   1      31.954  24.981  21.307  1.00  0.00    +0.000 H 
ATOM    180  H75 UNL A   1      33.868  20.227  23.143  1.00  0.00    +0.000 H 
ATOM     83  C60 UNL A   1      35.649  22.247  23.281  1.00  0.00    +0.000 C 
ATOM     84  C61 UNL A   1      34.575  23.293  22.943  1.00  0.00    +0.000 C 
ATOM     85  C62 UNL A   1      33.079  22.833  23.022  1.00  0.00    +0.000 C 
ATOM     87  C64 UNL A   1      32.968  21.815  24.194  1.00  0.00    +0.000 C 
ATOM     88  C65 UNL A   1      32.285  22.096  25.323  1.00  0.00    +0.000 C 
ATOM     89  C66 UNL A   1      31.750  23.464  25.667  1.00  0.00    +0.000 C 
ATOM     90  C67 UNL A   1      32.321  24.566  24.736  1.00  0.00    +0.000 C 
ATOM     91  C68 UNL A   1      32.004  26.067  25.147  1.00  0.00    +0.000 C 
ATOM     93  C70 UNL A   1      32.952  26.453  26.331  1.00  0.00    +0.000 C 
ATOM     94  C71 UNL A   1      32.890  27.927  26.730  1.00  0.00    +0.000 C 
ATOM     95  C72 UNL A   1      33.110  28.887  25.560  1.00  0.00    +0.000 C 
ATOM     97  C73 UNL A   1      32.250  28.589  24.293  1.00  0.00    +0.000 C 
ATOM    100  C76 UNL A   1      32.381  27.051  23.978  1.00  0.00    +0.000 C 
ATOM    101  C77 UNL A   1      31.764  26.597  22.650  1.00  0.00    +0.000 C 
ATOM    102  C78 UNL A   1      32.389  25.261  22.245  1.00  0.00    +0.000 C 
ATOM    103  C79 UNL A   1      32.095  24.113  23.246  1.00  0.00    +0.000 C 
ATOM    105  C81 UNL A   1      33.956  20.633  24.129  1.00  0.00    +0.000 C 
ATOM    109  H4  UNL A   1      33.627  19.499  25.928  1.00  0.00    +0.000 H 
ATOM    110  H5  UNL A   1      34.682  18.100  23.552  1.00  0.00    +0.000 H 
ATOM    114  H9  UNL A   1      36.924  18.179  24.356  1.00  0.00    +0.000 H 
ATOM    115  H10 UNL A   1      36.337  18.835  25.926  1.00  0.00    +0.000 H 
ATOM    116  H11 UNL A   1      36.839  20.192  23.396  1.00  0.00    +0.000 H 
ATOM    117  H12 UNL A   1      37.221  20.611  25.116  1.00  0.00    +0.000 H 
ENDROOT
BRANCH    2    1
ATOM      1  C1  UNL A   1      32.306  18.722  24.459  1.00  0.00    +0.000 C 
ATOM    106  H1  UNL A   1      32.283  18.592  23.398  1.00  0.00    +0.000 H 
ATOM    107  H2  UNL A   1      31.527  19.396  24.753  1.00  0.00    +0.000 H 
ATOM    108  H3  UNL A   1      32.158  17.777  24.939  1.00  0.00    +0.000 H 
ENDBRANCH    2    1
BRANCH    3    4
ATOM    113  H8  UNL A   1      34.952  17.142  26.410  1.00  0.00    +0.000 H 
ATOM      4  C4  UNL A   1      34.706  16.966  25.384  1.00  0.00    +0.000 C 
ATOM    111  H6  UNL A   1      35.383  16.246  24.973  1.00  0.00    +0.000 H 
ATOM    112  H7  UNL A   1      33.705  16.594  25.317  1.00  0.00    +0.000 H 
ENDBRANCH    3    4
BRANCH    7    8
ATOM      9  O1  UNL A   1      34.994  21.532  26.880  1.00  0.00    +0.000 O 
ATOM      8  C8  UNL A   1      35.357  22.060  25.821  1.00  0.00    +0.000 C 
BRANCH    8   10
ATOM     10  N1  UNL A   1      35.809  23.349  25.963  1.00  0.00    +0.000 N 
ATOM    118  H13 UNL A   1      35.136  24.060  25.861  1.00  0.00    +0.000 H 
BRANCH   10   11
ATOM     11  C9  UNL A   1      37.163  23.785  26.248  1.00  0.00    +0.000 C 
ATOM    119  H14 UNL A   1      37.229  24.010  27.292  1.00  0.00    +0.000 H 
ATOM    120  H15 UNL A   1      37.346  24.634  25.623  1.00  0.00    +0.000 H 
BRANCH   11   12
ATOM    121  H16 UNL A   1      38.571  22.953  24.909  1.00  0.00    +0.000 H 
ATOM    122  H17 UNL A   1      37.777  21.811  26.076  1.00  0.00    +0.000 H 
ATOM     12  C10 UNL A   1      38.249  22.757  25.911  1.00  0.00    +0.000 C 
BRANCH   12   13
ATOM    123  H18 UNL A   1      39.221  22.269  27.723  1.00  0.00    +0.000 H 
ATOM    124  H19 UNL A   1      39.833  23.730  26.820  1.00  0.00    +0.000 H 
ATOM     13  C11 UNL A   1      39.508  22.712  26.792  1.00  0.00    +0.000 C 
BRANCH   13   14
ATOM    126  H21 UNL A   1      40.389  20.955  26.133  1.00  0.00    +0.000 H 
ATOM    125  H20 UNL A   1      41.106  22.468  25.433  1.00  0.00    +0.000 H 
ATOM     14  C12 UNL A   1      40.742  21.952  26.297  1.00  0.00    +0.000 C 
BRANCH   14   15
ATOM    127  H22 UNL A   1      42.334  20.811  27.076  1.00  0.00    +0.000 H 
ATOM     15  C13 UNL A   1      41.920  21.782  27.253  1.00  0.00    +0.000 C 
ATOM    128  H23 UNL A   1      41.497  21.940  28.224  1.00  0.00    +0.000 H 
BRANCH   15   16
ATOM    129  H24 UNL A   1      43.984  22.237  27.173  1.00  0.00    +0.000 H 
ATOM    130  H25 UNL A   1      42.960  23.429  28.019  1.00  0.00    +0.000 H 
ATOM     16  C14 UNL A   1      43.064  22.781  27.173  1.00  0.00    +0.000 C 
BRANCH   16   17
ATOM     17  N2  UNL A   1      43.041  23.630  26.002  1.00  0.00    +0.000 N 
ATOM    131  H26 UNL A   1      43.309  23.193  25.161  1.00  0.00    +0.000 H 
BRANCH   17   18
ATOM     18  C15 UNL A   1      42.699  24.962  25.891  1.00  0.00    +0.000 C 
ATOM     19  O2  UNL A   1      42.627  25.479  24.786  1.00  0.00    +0.000 O 
BRANCH   18   20
ATOM    132  H27 UNL A   1      44.014  27.059  26.835  1.00  0.00    +0.000 H 
ATOM    133  H28 UNL A   1      43.514  28.444  28.761  1.00  0.00    +0.000 H 
ATOM    144  H39 UNL A   1      40.091  26.119  29.534  1.00  0.00    +0.000 H 
ATOM     81  C58 UNL A   1      40.941  26.307  28.979  1.00  0.00    +0.000 C 
ATOM     82  C59 UNL A   1      41.281  25.458  27.925  1.00  0.00    +0.000 C 
ATOM    145  H40 UNL A   1      40.731  24.601  27.756  1.00  0.00    +0.000 H 
ATOM     20  C16 UNL A   1      42.363  25.765  27.096  1.00  0.00    +0.000 C 
ATOM     21  C17 UNL A   1      43.186  26.853  27.415  1.00  0.00    +0.000 C 
ATOM     22  C18 UNL A   1      42.887  27.662  28.516  1.00  0.00    +0.000 C 
ATOM     23  C19 UNL A   1      41.743  27.416  29.290  1.00  0.00    +0.000 C 
BRANCH   23   24
ATOM    134  H29 UNL A   1      36.299  33.569  32.652  1.00  0.00    +0.000 H 
ATOM    135  H30 UNL A   1      37.276  34.065  35.019  1.00  0.00    +0.000 H 
ATOM    136  H31 UNL A   1      39.699  31.260  33.171  1.00  0.00    +0.000 H 
ATOM    137  H32 UNL A   1      44.648  27.239  33.399  1.00  0.00    +0.000 H 
ATOM    138  H33 UNL A   1      43.724  26.797  31.075  1.00  0.00    +0.000 H 
ATOM    139  H34 UNL A   1      41.316  29.667  32.876  1.00  0.00    +0.000 H 
ATOM    140  H35 UNL A   1      43.355  30.548  37.392  1.00  0.00    +0.000 H 
ATOM    141  H36 UNL A   1      41.391  32.128  37.831  1.00  0.00    +0.000 H 
ATOM    142  H37 UNL A   1      37.909  30.513  28.548  1.00  0.00    +0.000 H 
ATOM    143  H38 UNL A   1      39.552  28.569  28.270  1.00  0.00    +0.000 H 
ATOM     24  C20 UNL A   1      41.385  28.297  30.434  1.00  0.00    +0.000 C 
ATOM     25  C21 UNL A   1      40.216  29.239  30.332  1.00  0.00    +0.000 C 
ATOM     26  N3  UNL A   1      39.782  30.121  31.196  1.00  0.00    +0.000 N 
ATOM     27  C22 UNL A   1      38.704  30.752  30.587  1.00  0.00    +0.000 C 
ATOM     28  C23 UNL A   1      37.876  31.698  31.095  1.00  0.00    +0.000 C 
ATOM     40  C30 UNL A   1      37.978  32.233  32.427  1.00  0.00    +0.000 C 
ATOM     41  C31 UNL A   1      37.150  33.148  33.055  1.00  0.00    +0.000 C 
ATOM     42  C32 UNL A   1      37.666  33.401  34.330  1.00  0.00    +0.000 C 
ATOM     43  C33 UNL A   1      38.788  32.610  34.515  1.00  0.00    +0.000 C 
ATOM     44  N4  UNL A   1      38.972  31.902  33.337  1.00  0.00    +0.000 N 
ATOM     45  C34 UNL A   1      39.631  32.506  35.678  1.00  0.00    +0.000 C 
ATOM     57  C41 UNL A   1      40.715  31.698  35.781  1.00  0.00    +0.000 C 
ATOM     58  N5  UNL A   1      41.240  30.819  34.843  1.00  0.00    +0.000 N 
ATOM     59  C42 UNL A   1      42.295  30.280  35.406  1.00  0.00    +0.000 C 
ATOM     60  C43 UNL A   1      43.233  29.236  34.861  1.00  0.00    +0.000 C 
ATOM     72  C50 UNL A   1      43.013  28.726  33.634  1.00  0.00    +0.000 C 
ATOM     73  C51 UNL A   1      43.825  27.703  32.983  1.00  0.00    +0.000 C 
ATOM     74  C52 UNL A   1      43.330  27.461  31.759  1.00  0.00    +0.000 C 
ATOM     75  C53 UNL A   1      42.143  28.291  31.549  1.00  0.00    +0.000 C 
ATOM     76  N6  UNL A   1      42.031  29.010  32.714  1.00  0.00    +0.000 N 
ATOM     77  C54 UNL A   1      42.574  30.780  36.759  1.00  0.00    +0.000 C 
ATOM     78  C55 UNL A   1      41.559  31.611  36.954  1.00  0.00    +0.000 C 
ATOM     79  C56 UNL A   1      38.582  30.188  29.260  1.00  0.00    +0.000 C 
ATOM     80  C57 UNL A   1      39.446  29.200  29.079  1.00  0.00    +0.000 C 
BRANCH   28   29
ATOM     33  F2  UNL A   1      35.729  35.272  28.519  1.00  0.00    +0.000 F 
ATOM     34  C27 UNL A   1      34.739  33.130  28.506  1.00  0.00    +0.000 C 
ATOM     35  F3  UNL A   1      33.758  33.572  27.706  1.00  0.00    +0.000 F 
ATOM     36  C28 UNL A   1      34.742  31.812  28.936  1.00  0.00    +0.000 C 
ATOM     37  F4  UNL A   1      33.775  30.974  28.536  1.00  0.00    +0.000 F 
ATOM     38  C29 UNL A   1      35.746  31.357  29.789  1.00  0.00    +0.000 C 
ATOM     39  F5  UNL A   1      35.712  30.081  30.200  1.00  0.00    +0.000 F 
ATOM     29  C24 UNL A   1      36.780  32.209  30.206  1.00  0.00    +0.000 C 
ATOM     30  C25 UNL A   1      36.769  33.532  29.738  1.00  0.00    +0.000 C 
ATOM     31  F1  UNL A   1      37.728  34.390  30.115  1.00  0.00    +0.000 F 
ATOM     32  C26 UNL A   1      35.746  33.991  28.911  1.00  0.00    +0.000 C 
ENDBRANCH   28   29
BRANCH   45   46
ATOM     46  C35 UNL A   1      39.274  33.334  36.876  1.00  0.00    +0.000 C 
ATOM     47  C36 UNL A   1      38.460  32.832  37.901  1.00  0.00    +0.000 C 
ATOM     48  F6  UNL A   1      37.933  31.602  37.804  1.00  0.00    +0.000 F 
ATOM     49  C37 UNL A   1      38.153  33.608  39.017  1.00  0.00    +0.000 C 
ATOM     50  F7  UNL A   1      37.337  33.124  39.963  1.00  0.00    +0.000 F 
ATOM     51  C38 UNL A   1      38.680  34.885  39.142  1.00  0.00    +0.000 C 
ATOM     52  F8  UNL A   1      38.390  35.627  40.221  1.00  0.00    +0.000 F 
ATOM     53  C39 UNL A   1      39.502  35.395  38.149  1.00  0.00    +0.000 C 
ATOM     54  F9  UNL A   1      40.022  36.623  38.276  1.00  0.00    +0.000 F 
ATOM     55  C40 UNL A   1      39.787  34.633  37.020  1.00  0.00    +0.000 C 
ATOM     56  F10 UNL A   1      40.575  35.157  36.070  1.00  0.00    +0.000 F 
ENDBRANCH   45   46
BRANCH   60   61
ATOM     65  F12 UNL A   1      47.940  29.401  36.128  1.00  0.00    +0.000 F 
ATOM     66  C47 UNL A   1      46.555  27.815  37.194  1.00  0.00    +0.000 C 
ATOM     67  F13 UNL A   1      47.594  27.365  37.910  1.00  0.00    +0.000 F 
ATOM     68  C48 UNL A   1      45.304  27.235  37.343  1.00  0.00    +0.000 C 
ATOM     69  F14 UNL A   1      45.129  26.237  38.220  1.00  0.00    +0.000 F 
ATOM     70  C49 UNL A   1      44.228  27.686  36.582  1.00  0.00    +0.000 C 
ATOM     71  F15 UNL A   1      43.033  27.098  36.736  1.00  0.00    +0.000 F 
ATOM     61  C44 UNL A   1      44.376  28.745  35.674  1.00  0.00    +0.000 C 
ATOM     62  C45 UNL A   1      45.647  29.327  35.553  1.00  0.00    +0.000 C 
ATOM     63  F11 UNL A   1      45.844  30.327  34.683  1.00  0.00    +0.000 F 
ATOM     64  C46 UNL A   1      46.728  28.856  36.295  1.00  0.00    +0.000 C 
ENDBRANCH   60   61
ENDBRANCH   23   24
ENDBRANCH   18   20
ENDBRANCH   17   18
ENDBRANCH   16   17
ENDBRANCH   15   16
ENDBRANCH   14   15
ENDBRANCH   13   14
ENDBRANCH   12   13
ENDBRANCH   11   12
ENDBRANCH   10   11
ENDBRANCH    8   10
ENDBRANCH    7    8
BRANCH   85   86
ATOM    151  H46 UNL A   1      33.537  22.228  21.001  1.00  0.00    +0.000 H 
ATOM     86  C63 UNL A   1      32.719  22.131  21.685  1.00  0.00    +0.000 C 
ATOM    150  H45 UNL A   1      32.529  21.093  21.867  1.00  0.00    +0.000 H 
ATOM    152  H47 UNL A   1      31.847  22.586  21.266  1.00  0.00    +0.000 H 
ENDBRANCH   85   86
BRANCH   91   92
ATOM     92  C69 UNL A   1      30.546  26.184  25.632  1.00  0.00    +0.000 C 
ATOM    157  H52 UNL A   1      29.890  26.208  24.788  1.00  0.00    +0.000 H 
ATOM    158  H53 UNL A   1      30.431  27.082  26.201  1.00  0.00    +0.000 H 
ATOM    159  H54 UNL A   1      30.306  25.339  26.246  1.00  0.00    +0.000 H 
ENDBRANCH   91   92
BRANCH   95   96
ATOM    165  H60 UNL A   1      33.762  30.703  25.988  1.00  0.00    +0.000 H 
ATOM     96  O3  UNL A   1      32.917  30.226  26.018  1.00  0.00    +0.000 O 
ENDBRANCH   95   96
BRANCH   97   98
ATOM     98  C74 UNL A   1      30.797  29.090  24.443  1.00  0.00    +0.000 C 
ATOM    166  H61 UNL A   1      30.126  28.364  24.034  1.00  0.00    +0.000 H 
ATOM    167  H62 UNL A   1      30.683  30.016  23.920  1.00  0.00    +0.000 H 
ATOM    168  H63 UNL A   1      30.576  29.236  25.480  1.00  0.00    +0.000 H 
ENDBRANCH   97   98
BRANCH   97   99
ATOM    169  H64 UNL A   1      32.065  29.752  22.480  1.00  0.00    +0.000 H 
ATOM    170  H65 UNL A   1      33.543  28.827  22.577  1.00  0.00    +0.000 H 
ATOM     99  C75 UNL A   1      32.851  29.428  23.128  1.00  0.00    +0.000 C 
ATOM    171  H66 UNL A   1      33.359  30.281  23.527  1.00  0.00    +0.000 H 
ENDBRANCH   97   99
BRANCH  103  104
ATOM    177  H72 UNL A   1      30.134  23.489  23.928  1.00  0.00    +0.000 H 
ATOM    178  H73 UNL A   1      30.572  22.848  22.363  1.00  0.00    +0.000 H 
ATOM    179  H74 UNL A   1      30.094  24.521  22.520  1.00  0.00    +0.000 H 
ATOM    104  C80 UNL A   1      30.607  23.711  22.994  1.00  0.00    +0.000 C 
ENDBRANCH  103  104
TORSDOF 23
ENDMDL
MODEL 10
REMARK VINA RESULT:     -11.0     19.337     25.900
ROOT
ATOM      2  C2  UNL A   1      48.521  15.248  51.417  1.00  0.00    +0.000 C 
ATOM      3  C3  UNL A   1      48.526  16.641  50.705  1.00  0.00    +0.000 C 
ATOM      5  C5  UNL A   1      47.196  17.023  50.035  1.00  0.00    +0.000 C 
ATOM      6  C6  UNL A   1      46.474  15.919  49.293  1.00  0.00    +0.000 C 
ATOM      7  C7  UNL A   1      46.604  14.484  49.834  1.00  0.00    +0.000 C 
ATOM    146  H41 UNL A   1      47.203  13.953  47.829  1.00  0.00    +0.000 H 
ATOM    147  H42 UNL A   1      45.472  13.641  48.249  1.00  0.00    +0.000 H 
ATOM    148  H43 UNL A   1      47.009  11.682  47.743  1.00  0.00    +0.000 H 
ATOM    149  H44 UNL A   1      45.875  11.681  49.148  1.00  0.00    +0.000 H 
ATOM    153  H48 UNL A   1      47.747  13.008  52.876  1.00  0.00    +0.000 H 
ATOM    154  H49 UNL A   1      46.113  11.178  53.118  1.00  0.00    +0.000 H 
ATOM    155  H50 UNL A   1      47.703  10.418  52.982  1.00  0.00    +0.000 H 
ATOM    156  H51 UNL A   1      45.710  10.747  50.732  1.00  0.00    +0.000 H 
ATOM    160  H55 UNL A   1      43.825  10.030  51.109  1.00  0.00    +0.000 H 
ATOM    161  H56 UNL A   1      44.228   9.831  52.835  1.00  0.00    +0.000 H 
ATOM    162  H57 UNL A   1      42.191   8.639  52.141  1.00  0.00    +0.000 H 
ATOM    163  H58 UNL A   1      43.474   7.622  52.832  1.00  0.00    +0.000 H 
ATOM    164  H59 UNL A   1      42.758   7.891  49.962  1.00  0.00    +0.000 H 
ATOM    172  H67 UNL A   1      44.916   8.673  49.515  1.00  0.00    +0.000 H 
ATOM    173  H68 UNL A   1      46.711   7.152  48.697  1.00  0.00    +0.000 H 
ATOM    174  H69 UNL A   1      47.496   7.350  50.240  1.00  0.00    +0.000 H 
ATOM    175  H70 UNL A   1      46.714   9.595  48.393  1.00  0.00    +0.000 H 
ATOM    176  H71 UNL A   1      48.349   8.930  48.594  1.00  0.00    +0.000 H 
ATOM    180  H75 UNL A   1      48.819  14.229  49.753  1.00  0.00    +0.000 H 
ATOM     83  C60 UNL A   1      46.499  13.578  48.543  1.00  0.00    +0.000 C 
ATOM     84  C61 UNL A   1      46.768  12.074  48.709  1.00  0.00    +0.000 C 
ATOM     85  C62 UNL A   1      47.917  11.657  49.690  1.00  0.00    +0.000 C 
ATOM     87  C64 UNL A   1      47.920  12.680  50.862  1.00  0.00    +0.000 C 
ATOM     88  C65 UNL A   1      47.577  12.328  52.118  1.00  0.00    +0.000 C 
ATOM     89  C66 UNL A   1      46.958  11.002  52.483  1.00  0.00    +0.000 C 
ATOM     90  C67 UNL A   1      46.488  10.211  51.233  1.00  0.00    +0.000 C 
ATOM     91  C68 UNL A   1      45.622   8.909  51.509  1.00  0.00    +0.000 C 
ATOM     93  C70 UNL A   1      44.170   9.365  51.873  1.00  0.00    +0.000 C 
ATOM     94  C71 UNL A   1      43.166   8.220  52.001  1.00  0.00    +0.000 C 
ATOM     95  C72 UNL A   1      43.126   7.303  50.776  1.00  0.00    +0.000 C 
ATOM     97  C73 UNL A   1      44.519   6.805  50.281  1.00  0.00    +0.000 C 
ATOM    100  C76 UNL A   1      45.471   8.059  50.193  1.00  0.00    +0.000 C 
ATOM    101  C77 UNL A   1      46.832   7.806  49.535  1.00  0.00    +0.000 C 
ATOM    102  C78 UNL A   1      47.411   9.142  49.065  1.00  0.00    +0.000 C 
ATOM    103  C79 UNL A   1      47.693  10.134  50.224  1.00  0.00    +0.000 C 
ATOM    105  C81 UNL A   1      48.001  14.161  50.439  1.00  0.00    +0.000 C 
ATOM    109  H4  UNL A   1      47.865  15.296  52.262  1.00  0.00    +0.000 H 
ATOM    110  H5  UNL A   1      49.280  16.487  49.961  1.00  0.00    +0.000 H 
ATOM    114  H9  UNL A   1      47.397  17.808  49.337  1.00  0.00    +0.000 H 
ATOM    115  H10 UNL A   1      46.544  17.299  50.838  1.00  0.00    +0.000 H 
ATOM    116  H11 UNL A   1      46.844  15.916  48.289  1.00  0.00    +0.000 H 
ATOM    117  H12 UNL A   1      45.436  16.156  49.403  1.00  0.00    +0.000 H 
ENDROOT
BRANCH    2    1
ATOM      1  C1  UNL A   1      49.924  14.894  51.938  1.00  0.00    +0.000 C 
ATOM    106  H1  UNL A   1      50.645  15.069  51.167  1.00  0.00    +0.000 H 
ATOM    107  H2  UNL A   1      49.948  13.863  52.222  1.00  0.00    +0.000 H 
ATOM    108  H3  UNL A   1      50.154  15.503  52.787  1.00  0.00    +0.000 H 
ENDBRANCH    2    1
BRANCH    3    4
ATOM    113  H8  UNL A   1      48.816  17.524  52.636  1.00  0.00    +0.000 H 
ATOM      4  C4  UNL A   1      48.905  17.819  51.612  1.00  0.00    +0.000 C 
ATOM    111  H6  UNL A   1      48.249  18.643  51.420  1.00  0.00    +0.000 H 
ATOM    112  H7  UNL A   1      49.914  18.113  51.412  1.00  0.00    +0.000 H 
ENDBRANCH    3    4
BRANCH    7    8
ATOM      9  O1  UNL A   1      45.276  14.695  51.887  1.00  0.00    +0.000 O 
ATOM      8  C8  UNL A   1      45.406  14.125  50.796  1.00  0.00    +0.000 C 
BRANCH    8   10
ATOM     10  N1  UNL A   1      44.402  13.232  50.508  1.00  0.00    +0.000 N 
ATOM    118  H13 UNL A   1      44.348  12.924  49.575  1.00  0.00    +0.000 H 
BRANCH   10   11
ATOM     11  C9  UNL A   1      43.411  12.693  51.420  1.00  0.00    +0.000 C 
ATOM    119  H14 UNL A   1      43.256  13.406  52.203  1.00  0.00    +0.000 H 
ATOM    120  H15 UNL A   1      43.800  11.760  51.773  1.00  0.00    +0.000 H 
BRANCH   11   12
ATOM    121  H16 UNL A   1      42.247  11.859  49.866  1.00  0.00    +0.000 H 
ATOM    122  H17 UNL A   1      41.584  13.339  50.683  1.00  0.00    +0.000 H 
ATOM     12  C10 UNL A   1      42.054  12.383  50.780  1.00  0.00    +0.000 C 
BRANCH   12   13
ATOM    123  H18 UNL A   1      41.580  11.112  52.400  1.00  0.00    +0.000 H 
ATOM    124  H19 UNL A   1      40.648  10.867  50.852  1.00  0.00    +0.000 H 
ATOM     13  C11 UNL A   1      41.046  11.543  51.579  1.00  0.00    +0.000 C 
BRANCH   13   14
ATOM    126  H21 UNL A   1      39.749  13.159  51.652  1.00  0.00    +0.000 H 
ATOM    125  H20 UNL A   1      38.977  11.555  52.005  1.00  0.00    +0.000 H 
ATOM     14  C12 UNL A   1      39.802  12.220  52.162  1.00  0.00    +0.000 C 
BRANCH   14   15
ATOM    127  H22 UNL A   1      40.726  13.106  53.836  1.00  0.00    +0.000 H 
ATOM     15  C13 UNL A   1      39.806  12.593  53.642  1.00  0.00    +0.000 C 
ATOM    128  H23 UNL A   1      39.674  11.661  54.150  1.00  0.00    +0.000 H 
BRANCH   15   16
ATOM    129  H24 UNL A   1      38.437  13.146  55.157  1.00  0.00    +0.000 H 
ATOM    130  H25 UNL A   1      37.869  13.370  53.479  1.00  0.00    +0.000 H 
ATOM     16  C14 UNL A   1      38.682  13.472  54.168  1.00  0.00    +0.000 C 
BRANCH   16   17
ATOM     17  N2  UNL A   1      38.996  14.883  54.224  1.00  0.00    +0.000 N 
ATOM    131  H26 UNL A   1      39.391  15.193  55.071  1.00  0.00    +0.000 H 
BRANCH   17   18
ATOM     18  C15 UNL A   1      38.824  15.858  53.263  1.00  0.00    +0.000 C 
ATOM     19  O2  UNL A   1      37.839  16.579  53.303  1.00  0.00    +0.000 O 
BRANCH   18   20
ATOM    132  H27 UNL A   1      38.447  16.891  50.853  1.00  0.00    +0.000 H 
ATOM    133  H28 UNL A   1      40.063  17.322  49.097  1.00  0.00    +0.000 H 
ATOM    144  H39 UNL A   1      43.131  15.839  51.570  1.00  0.00    +0.000 H 
ATOM     81  C58 UNL A   1      42.132  16.040  51.403  1.00  0.00    +0.000 C 
ATOM     82  C59 UNL A   1      41.187  15.710  52.375  1.00  0.00    +0.000 C 
ATOM    145  H40 UNL A   1      41.477  15.191  53.220  1.00  0.00    +0.000 H 
ATOM     20  C16 UNL A   1      39.850  16.079  52.209  1.00  0.00    +0.000 C 
ATOM     21  C17 UNL A   1      39.441  16.658  51.002  1.00  0.00    +0.000 C 
ATOM     22  C18 UNL A   1      40.377  16.922  49.996  1.00  0.00    +0.000 C 
ATOM     23  C19 UNL A   1      41.737  16.645  50.200  1.00  0.00    +0.000 C 
BRANCH   23   24
ATOM    134  H29 UNL A   1      45.887  14.248  42.728  1.00  0.00    +0.000 H 
ATOM    135  H30 UNL A   1      47.580  16.182  42.286  1.00  0.00    +0.000 H 
ATOM    136  H31 UNL A   1      45.548  17.007  45.799  1.00  0.00    +0.000 H 
ATOM    137  H32 UNL A   1      44.307  20.951  50.659  1.00  0.00    +0.000 H 
ATOM    138  H33 UNL A   1      42.696  19.041  51.114  1.00  0.00    +0.000 H 
ATOM    139  H34 UNL A   1      44.772  18.150  47.624  1.00  0.00    +0.000 H 
ATOM    140  H35 UNL A   1      48.020  21.933  46.943  1.00  0.00    +0.000 H 
ATOM    141  H36 UNL A   1      48.697  20.792  44.755  1.00  0.00    +0.000 H 
ATOM    142  H37 UNL A   1      42.473  13.156  46.718  1.00  0.00    +0.000 H 
ATOM    143  H38 UNL A   1      41.422  14.502  48.625  1.00  0.00    +0.000 H 
ATOM     24  C20 UNL A   1      42.751  16.966  49.159  1.00  0.00    +0.000 C 
ATOM     25  C21 UNL A   1      43.019  16.001  48.036  1.00  0.00    +0.000 C 
ATOM     26  N3  UNL A   1      43.898  16.074  47.068  1.00  0.00    +0.000 N 
ATOM     27  C22 UNL A   1      43.756  14.903  46.335  1.00  0.00    +0.000 C 
ATOM     28  C23 UNL A   1      44.394  14.531  45.199  1.00  0.00    +0.000 C 
ATOM     40  C30 UNL A   1      45.377  15.334  44.521  1.00  0.00    +0.000 C 
ATOM     41  C31 UNL A   1      46.034  15.072  43.331  1.00  0.00    +0.000 C 
ATOM     42  C32 UNL A   1      46.930  16.117  43.086  1.00  0.00    +0.000 C 
ATOM     43  C33 UNL A   1      46.799  17.053  44.099  1.00  0.00    +0.000 C 
ATOM     44  N4  UNL A   1      45.846  16.558  44.976  1.00  0.00    +0.000 N 
ATOM     45  C34 UNL A   1      47.490  18.307  44.257  1.00  0.00    +0.000 C 
ATOM     57  C41 UNL A   1      47.299  19.175  45.281  1.00  0.00    +0.000 C 
ATOM     58  N5  UNL A   1      46.432  19.073  46.361  1.00  0.00    +0.000 N 
ATOM     59  C42 UNL A   1      46.624  20.152  47.081  1.00  0.00    +0.000 C 
ATOM     60  C43 UNL A   1      45.936  20.584  48.348  1.00  0.00    +0.000 C 
ATOM     72  C50 UNL A   1      44.964  19.809  48.869  1.00  0.00    +0.000 C 
ATOM     73  C51 UNL A   1      44.203  20.104  50.078  1.00  0.00    +0.000 C 
ATOM     74  C52 UNL A   1      43.343  19.100  50.312  1.00  0.00    +0.000 C 
ATOM     75  C53 UNL A   1      43.470  18.102  49.249  1.00  0.00    +0.000 C 
ATOM     76  N6  UNL A   1      44.457  18.607  48.438  1.00  0.00    +0.000 N 
ATOM     77  C54 UNL A   1      47.659  21.050  46.549  1.00  0.00    +0.000 C 
ATOM     78  C55 UNL A   1      48.008  20.428  45.432  1.00  0.00    +0.000 C 
ATOM     79  C56 UNL A   1      42.742  14.112  46.999  1.00  0.00    +0.000 C 
ATOM     80  C57 UNL A   1      42.205  14.774  48.012  1.00  0.00    +0.000 C 
BRANCH   28   29
ATOM     33  F2  UNL A   1      41.417  11.602  42.632  1.00  0.00    +0.000 F 
ATOM     34  C27 UNL A   1      43.424  10.695  43.482  1.00  0.00    +0.000 C 
ATOM     35  F3  UNL A   1      43.123   9.499  42.956  1.00  0.00    +0.000 F 
ATOM     36  C28 UNL A   1      44.594  10.859  44.209  1.00  0.00    +0.000 C 
ATOM     37  F4  UNL A   1      45.434   9.827  44.367  1.00  0.00    +0.000 F 
ATOM     38  C29 UNL A   1      44.894  12.095  44.779  1.00  0.00    +0.000 C 
ATOM     39  F5  UNL A   1      46.025  12.217  45.489  1.00  0.00    +0.000 F 
ATOM     29  C24 UNL A   1      44.040  13.195  44.611  1.00  0.00    +0.000 C 
ATOM     30  C25 UNL A   1      42.875  13.011  43.851  1.00  0.00    +0.000 C 
ATOM     31  F1  UNL A   1      42.019  14.027  43.670  1.00  0.00    +0.000 F 
ATOM     32  C26 UNL A   1      42.562  11.766  43.309  1.00  0.00    +0.000 C 
ENDBRANCH   28   29
BRANCH   45   46
ATOM     46  C35 UNL A   1      48.480  18.697  43.200  1.00  0.00    +0.000 C 
ATOM     47  C36 UNL A   1      49.862  18.578  43.408  1.00  0.00    +0.000 C 
ATOM     48  F6  UNL A   1      50.334  18.158  44.591  1.00  0.00    +0.000 F 
ATOM     49  C37 UNL A   1      50.768  18.926  42.408  1.00  0.00    +0.000 C 
ATOM     50  F7  UNL A   1      52.085  18.847  42.643  1.00  0.00    +0.000 F 
ATOM     51  C38 UNL A   1      50.309  19.368  41.176  1.00  0.00    +0.000 C 
ATOM     52  F8  UNL A   1      51.183  19.696  40.213  1.00  0.00    +0.000 F 
ATOM     53  C39 UNL A   1      48.947  19.477  40.944  1.00  0.00    +0.000 C 
ATOM     54  F9  UNL A   1      48.502  19.891  39.749  1.00  0.00    +0.000 F 
ATOM     55  C40 UNL A   1      48.040  19.157  41.950  1.00  0.00    +0.000 C 
ATOM     56  F10 UNL A   1      46.728  19.283  41.699  1.00  0.00    +0.000 F 
ENDBRANCH   45   46
BRANCH   60   61
ATOM     65  F12 UNL A   1      45.371  25.396  48.906  1.00  0.00    +0.000 F 
ATOM     66  C47 UNL A   1      46.982  24.302  50.240  1.00  0.00    +0.000 C 
ATOM     67  F13 UNL A   1      47.316  25.463  50.819  1.00  0.00    +0.000 F 
ATOM     68  C48 UNL A   1      47.637  23.133  50.599  1.00  0.00    +0.000 C 
ATOM     69  F14 UNL A   1      48.590  23.161  51.540  1.00  0.00    +0.000 F 
ATOM     70  C49 UNL A   1      47.307  21.928  49.981  1.00  0.00    +0.000 C 
ATOM     71  F15 UNL A   1      47.966  20.816  50.337  1.00  0.00    +0.000 F 
ATOM     61  C44 UNL A   1      46.297  21.865  49.009  1.00  0.00    +0.000 C 
ATOM     62  C45 UNL A   1      45.637  23.057  48.676  1.00  0.00    +0.000 C 
ATOM     63  F11 UNL A   1      44.681  23.051  47.737  1.00  0.00    +0.000 F 
ATOM     64  C46 UNL A   1      45.987  24.266  49.275  1.00  0.00    +0.000 C 
ENDBRANCH   60   61
ENDBRANCH   23   24
ENDBRANCH   18   20
ENDBRANCH   17   18
ENDBRANCH   16   17
ENDBRANCH   15   16
ENDBRANCH   14   15
ENDBRANCH   13   14
ENDBRANCH   12   13
ENDBRANCH   11   12
ENDBRANCH   10   11
ENDBRANCH    8   10
ENDBRANCH    7    8
BRANCH   85   86
ATOM    151  H46 UNL A   1      49.696  10.767  48.847  1.00  0.00    +0.000 H 
ATOM     86  C63 UNL A   1      49.262  11.743  48.919  1.00  0.00    +0.000 C 
ATOM    150  H45 UNL A   1      49.085  12.127  47.935  1.00  0.00    +0.000 H 
ATOM    152  H47 UNL A   1      49.932  12.394  49.441  1.00  0.00    +0.000 H 
ENDBRANCH   85   86
BRANCH   91   92
ATOM     92  C69 UNL A   1      46.205   8.133  52.706  1.00  0.00    +0.000 C 
ATOM    157  H52 UNL A   1      46.589   8.824  53.426  1.00  0.00    +0.000 H 
ATOM    158  H53 UNL A   1      46.993   7.494  52.366  1.00  0.00    +0.000 H 
ATOM    159  H54 UNL A   1      45.434   7.541  53.156  1.00  0.00    +0.000 H 
ENDBRANCH   91   92
BRANCH   95   96
ATOM    165  H60 UNL A   1      42.560   5.421  50.576  1.00  0.00    +0.000 H 
ATOM     96  O3  UNL A   1      42.247   6.210  51.045  1.00  0.00    +0.000 O 
ENDBRANCH   95   96
BRANCH   97   98
ATOM     98  C74 UNL A   1      45.064   5.647  51.142  1.00  0.00    +0.000 C 
ATOM    166  H61 UNL A   1      44.264   4.980  51.391  1.00  0.00    +0.000 H 
ATOM    167  H62 UNL A   1      45.492   6.040  52.040  1.00  0.00    +0.000 H 
ATOM    168  H63 UNL A   1      45.812   5.115  50.592  1.00  0.00    +0.000 H 
ENDBRANCH   97   98
BRANCH   97   99
ATOM    169  H64 UNL A   1      45.101   5.513  48.648  1.00  0.00    +0.000 H 
ATOM    170  H65 UNL A   1      44.300   6.978  48.137  1.00  0.00    +0.000 H 
ATOM     99  C75 UNL A   1      44.306   6.195  48.865  1.00  0.00    +0.000 C 
ATOM    171  H66 UNL A   1      43.372   5.675  48.838  1.00  0.00    +0.000 H 
ENDBRANCH   97   99
BRANCH  103  104
ATOM    177  H72 UNL A   1      49.755  10.344  50.860  1.00  0.00    +0.000 H 
ATOM    178  H73 UNL A   1      49.313   8.709  50.434  1.00  0.00    +0.000 H 
ATOM    179  H74 UNL A   1      48.775   9.393  51.949  1.00  0.00    +0.000 H 
ATOM    104  C80 UNL A   1      48.986   9.602  50.922  1.00  0.00    +0.000 C 
ENDBRANCH  103  104
TORSDOF 23
ENDMDL
