MODEL 1
REMARK VINA RESULT:      -8.3      0.000      0.000
ROOT
ATOM    136  H38 UNL A   1      13.261  46.460   2.626  1.00  0.00    +0.000 H 
ATOM    137  H39 UNL A   1      14.924  46.819   0.650  1.00  0.00    +0.000 H 
ATOM    138  H40 UNL A   1      14.685  50.345   2.806  1.00  0.00    +0.000 H 
ATOM    139  H41 UNL A   1      16.272  56.485   3.531  1.00  0.00    +0.000 H 
ATOM    140  H42 UNL A   1      14.674  56.122   5.472  1.00  0.00    +0.000 H 
ATOM    141  H43 UNL A   1      14.918  52.559   3.343  1.00  0.00    +0.000 H 
ATOM    142  H44 UNL A   1      18.224  53.381  -0.355  1.00  0.00    +0.000 H 
ATOM    143  H45 UNL A   1      17.737  50.995  -1.143  1.00  0.00    +0.000 H 
ATOM    144  H46 UNL A   1      11.606  49.557   6.683  1.00  0.00    +0.000 H 
ATOM    145  H47 UNL A   1      11.714  52.059   7.221  1.00  0.00    +0.000 H 
ATOM     38  C32 UNL A   1      13.563  53.499   5.602  1.00  0.00    +0.000 C 
ATOM     39  C33 UNL A   1      13.163  52.056   5.476  1.00  0.00    +0.000 C 
ATOM     40  N3  UNL A   1      13.564  51.157   4.613  1.00  0.00    +0.000 N 
ATOM     41  C34 UNL A   1      12.924  49.978   4.971  1.00  0.00    +0.000 C 
ATOM     42  C35 UNL A   1      12.971  48.771   4.355  1.00  0.00    +0.000 C 
ATOM     54  C42 UNL A   1      13.719  48.500   3.156  1.00  0.00    +0.000 C 
ATOM     55  C43 UNL A   1      13.778  47.329   2.421  1.00  0.00    +0.000 C 
ATOM     56  C44 UNL A   1      14.661  47.526   1.353  1.00  0.00    +0.000 C 
ATOM     57  C45 UNL A   1      15.119  48.833   1.400  1.00  0.00    +0.000 C 
ATOM     58  N4  UNL A   1      14.538  49.417   2.514  1.00  0.00    +0.000 N 
ATOM     59  C46 UNL A   1      16.020  49.501   0.497  1.00  0.00    +0.000 C 
ATOM     71  C53 UNL A   1      16.422  50.790   0.610  1.00  0.00    +0.000 C 
ATOM     72  N5  UNL A   1      16.076  51.730   1.570  1.00  0.00    +0.000 N 
ATOM     73  C54 UNL A   1      16.730  52.821   1.257  1.00  0.00    +0.000 C 
ATOM     74  C55 UNL A   1      16.715  54.164   1.934  1.00  0.00    +0.000 C 
ATOM     86  C62 UNL A   1      15.916  54.355   3.000  1.00  0.00    +0.000 C 
ATOM     87  C63 UNL A   1      15.786  55.601   3.750  1.00  0.00    +0.000 C 
ATOM     88  C64 UNL A   1      14.934  55.412   4.770  1.00  0.00    +0.000 C 
ATOM     89  C65 UNL A   1      14.434  54.037   4.727  1.00  0.00    +0.000 C 
ATOM     90  N6  UNL A   1      15.063  53.488   3.638  1.00  0.00    +0.000 N 
ATOM     91  C66 UNL A   1      17.589  52.687   0.072  1.00  0.00    +0.000 C 
ATOM     92  C67 UNL A   1      17.336  51.442  -0.305  1.00  0.00    +0.000 C 
ATOM     93  C68 UNL A   1      12.143  50.262   6.155  1.00  0.00    +0.000 C 
ATOM     94  C69 UNL A   1      12.206  51.548   6.472  1.00  0.00    +0.000 C 
ENDROOT
BRANCH   38   37
ATOM     34  C28 UNL A   1      12.044  55.844   8.856  1.00  0.00    +0.000 C 
ATOM     35  C29 UNL A   1      13.274  55.190   8.989  1.00  0.00    +0.000 C 
ATOM     36  C30 UNL A   1      13.784  54.443   7.924  1.00  0.00    +0.000 C 
ATOM     37  C31 UNL A   1      13.056  54.320   6.731  1.00  0.00    +0.000 C 
ATOM    134  H36 UNL A   1      13.803  55.259   9.873  1.00  0.00    +0.000 H 
ATOM    135  H37 UNL A   1      14.702  53.979   8.016  1.00  0.00    +0.000 H 
ATOM    146  H48 UNL A   1      11.284  54.902   5.733  1.00  0.00    +0.000 H 
ATOM    147  H49 UNL A   1      10.486  56.334   7.517  1.00  0.00    +0.000 H 
ATOM     95  C70 UNL A   1      11.832  54.994   6.602  1.00  0.00    +0.000 C 
ATOM     96  C71 UNL A   1      11.352  55.788   7.643  1.00  0.00    +0.000 C 
BRANCH   34   32
ATOM     33  O3  UNL A   1      11.316  57.833   9.854  1.00  0.00    +0.000 O 
ATOM     32  C27 UNL A   1      11.534  56.641   9.996  1.00  0.00    +0.000 C 
BRANCH   32   31
ATOM    133  H35 UNL A   1      11.487  56.594  12.000  1.00  0.00    +0.000 H 
ATOM     31  N2  UNL A   1      11.296  56.039  11.210  1.00  0.00    +0.000 N 
BRANCH   31   30
ATOM    131  H33 UNL A   1       9.991  54.772  12.186  1.00  0.00    +0.000 H 
ATOM    132  H34 UNL A   1      10.484  54.265  10.569  1.00  0.00    +0.000 H 
ATOM     30  C26 UNL A   1      10.803  54.702  11.493  1.00  0.00    +0.000 C 
BRANCH   30   29
ATOM    129  H31 UNL A   1      12.840  54.215  11.823  1.00  0.00    +0.000 H 
ATOM    130  H32 UNL A   1      11.715  53.791  13.146  1.00  0.00    +0.000 H 
ATOM     29  C25 UNL A   1      11.887  53.807  12.090  1.00  0.00    +0.000 C 
BRANCH   29   28
ATOM     28  C24 UNL A   1      11.847  52.347  11.623  1.00  0.00    +0.000 C 
ATOM    127  H29 UNL A   1      11.071  52.257  10.892  1.00  0.00    +0.000 H 
ATOM    128  H30 UNL A   1      12.825  52.135  11.246  1.00  0.00    +0.000 H 
BRANCH   28   27
ATOM     27  C23 UNL A   1      11.585  51.306  12.718  1.00  0.00    +0.000 C 
ATOM    125  H27 UNL A   1      11.266  51.823  13.599  1.00  0.00    +0.000 H 
ATOM    126  H28 UNL A   1      10.848  50.638  12.324  1.00  0.00    +0.000 H 
BRANCH   27   26
ATOM     26  C22 UNL A   1      12.791  50.437  13.090  1.00  0.00    +0.000 C 
ATOM    123  H25 UNL A   1      13.309  50.180  12.189  1.00  0.00    +0.000 H 
ATOM    124  H26 UNL A   1      13.391  51.013  13.762  1.00  0.00    +0.000 H 
BRANCH   26   25
ATOM     25  C21 UNL A   1      12.428  49.141  13.822  1.00  0.00    +0.000 C 
ATOM    122  H24 UNL A   1      12.055  49.399  14.790  1.00  0.00    +0.000 H 
ATOM    121  H23 UNL A   1      13.303  48.530  13.898  1.00  0.00    +0.000 H 
BRANCH   25   24
ATOM    120  H22 UNL A   1      10.597  48.931  12.913  1.00  0.00    +0.000 H 
ATOM     24  N1  UNL A   1      11.399  48.401  13.125  1.00  0.00    +0.000 N 
BRANCH   24   22
ATOM     22  C20 UNL A   1      11.338  47.107  12.708  1.00  0.00    +0.000 C 
ATOM     23  O2  UNL A   1      10.998  46.282  13.566  1.00  0.00    +0.000 O 
BRANCH   22   20
ATOM    116  H18 UNL A   1      10.730  46.664  10.764  1.00  0.00    +0.000 H 
ATOM     20  C18 UNL A   1      11.667  46.640  11.279  1.00  0.00    +0.000 C 
BRANCH   20   19
ATOM      7  C6  UNL A   1      12.016  48.724   9.801  1.00  0.00    +0.000 C 
ATOM      8  C7  UNL A   1      12.894  49.658   9.208  1.00  0.00    +0.000 C 
ATOM      9  C8  UNL A   1      14.282  49.476   9.226  1.00  0.00    +0.000 C 
ATOM    104  H6  UNL A   1      12.502  50.496   8.750  1.00  0.00    +0.000 H 
ATOM     17  C15 UNL A   1      14.801  48.371   9.892  1.00  0.00    +0.000 C 
ATOM     18  C16 UNL A   1      13.949  47.458  10.511  1.00  0.00    +0.000 C 
ATOM     19  C17 UNL A   1      12.554  47.627  10.518  1.00  0.00    +0.000 C 
ATOM    115  H17 UNL A   1      14.355  46.634  10.980  1.00  0.00    +0.000 H 
ATOM    114  H16 UNL A   1      15.821  48.225   9.926  1.00  0.00    +0.000 H 
BRANCH    7    6
ATOM     97  C72 UNL A   1      10.029  48.181   8.336  1.00  0.00    +0.000 C 
ATOM     98  C73 UNL A   1       8.669  48.357   8.035  1.00  0.00    +0.000 C 
ATOM      3  C2  UNL A   1       7.840  49.154   8.840  1.00  0.00    +0.000 C 
ATOM      4  C3  UNL A   1       8.402  49.774   9.956  1.00  0.00    +0.000 C 
ATOM      5  C4  UNL A   1       9.756  49.608  10.250  1.00  0.00    +0.000 C 
ATOM    102  H4  UNL A   1       7.812  50.359  10.569  1.00  0.00    +0.000 H 
ATOM      6  C5  UNL A   1      10.591  48.814   9.447  1.00  0.00    +0.000 C 
ATOM    103  H5  UNL A   1      10.153  50.079  11.077  1.00  0.00    +0.000 H 
ATOM    148  H50 UNL A   1      10.614  47.580   7.736  1.00  0.00    +0.000 H 
ATOM    149  H51 UNL A   1       8.271  47.892   7.204  1.00  0.00    +0.000 H 
BRANCH    3    2
ATOM      2  S1  UNL A   1       6.129  49.333   8.350  1.00  0.00    +0.000 S 
BRANCH    2    1
ATOM      1  C1  UNL A   1       5.361  47.803   8.953  1.00  0.00    +0.000 C 
ATOM     99  H1  UNL A   1       5.968  47.379   9.724  1.00  0.00    +0.000 H 
ATOM    100  H2  UNL A   1       5.271  47.107   8.146  1.00  0.00    +0.000 H 
ATOM    101  H3  UNL A   1       4.389  48.023   9.345  1.00  0.00    +0.000 H 
ENDBRANCH    2    1
ENDBRANCH    3    2
ENDBRANCH    7    6
BRANCH    9   10
ATOM    105  H7  UNL A   1      14.595  50.912   7.723  1.00  0.00    +0.000 H 
ATOM     10  C9  UNL A   1      15.195  50.370   8.424  1.00  0.00    +0.000 C 
ATOM    106  H8  UNL A   1      15.913  49.726   7.962  1.00  0.00    +0.000 H 
BRANCH   10   11
ATOM     11  C10 UNL A   1      15.998  51.386   9.248  1.00  0.00    +0.000 C 
ATOM    108  H10 UNL A   1      14.290  51.815  10.489  1.00  0.00    +0.000 H 
ATOM     12  C11 UNL A   1      15.354  51.915  10.538  1.00  0.00    +0.000 C 
ATOM    107  H9  UNL A   1      16.099  52.173   8.531  1.00  0.00    +0.000 H 
ATOM     15  C14 UNL A   1      17.288  50.792   9.771  1.00  0.00    +0.000 C 
ATOM    109  H11 UNL A   1      15.570  52.954  10.684  1.00  0.00    +0.000 H 
ATOM     13  C12 UNL A   1      15.915  51.066  11.674  1.00  0.00    +0.000 C 
ATOM     14  C13 UNL A   1      17.353  50.774  11.274  1.00  0.00    +0.000 C 
ATOM     16  O1  UNL A   1      18.194  50.392   9.049  1.00  0.00    +0.000 O 
ATOM    110  H12 UNL A   1      15.360  50.157  11.772  1.00  0.00    +0.000 H 
ATOM    111  H13 UNL A   1      15.853  51.566  12.618  1.00  0.00    +0.000 H 
ATOM    112  H14 UNL A   1      17.669  49.818  11.637  1.00  0.00    +0.000 H 
ATOM    113  H15 UNL A   1      18.057  51.473  11.678  1.00  0.00    +0.000 H 
ENDBRANCH   10   11
ENDBRANCH    9   10
ENDBRANCH   20   19
BRANCH   20   21
ATOM    117  H19 UNL A   1      11.626  44.608  11.943  1.00  0.00    +0.000 H 
ATOM     21  C19 UNL A   1      12.056  45.168  11.139  1.00  0.00    +0.000 C 
ATOM    118  H20 UNL A   1      13.121  45.076  11.169  1.00  0.00    +0.000 H 
ATOM    119  H21 UNL A   1      11.692  44.791  10.205  1.00  0.00    +0.000 H 
ENDBRANCH   20   21
ENDBRANCH   22   20
ENDBRANCH   24   22
ENDBRANCH   25   24
ENDBRANCH   26   25
ENDBRANCH   27   26
ENDBRANCH   28   27
ENDBRANCH   29   28
ENDBRANCH   30   29
ENDBRANCH   31   30
ENDBRANCH   32   31
ENDBRANCH   34   32
ENDBRANCH   38   37
BRANCH   42   43
ATOM     43  C36 UNL A   1      12.182  47.650   4.967  1.00  0.00    +0.000 C 
ATOM     44  C37 UNL A   1      10.963  47.226   4.418  1.00  0.00    +0.000 C 
ATOM     45  F1  UNL A   1      10.447  47.855   3.353  1.00  0.00    +0.000 F 
ATOM     46  C38 UNL A   1      10.248  46.175   4.989  1.00  0.00    +0.000 C 
ATOM     47  F2  UNL A   1       9.063  45.817   4.475  1.00  0.00    +0.000 F 
ATOM     48  C39 UNL A   1      10.755  45.508   6.094  1.00  0.00    +0.000 C 
ATOM     49  F3  UNL A   1      10.069  44.494   6.638  1.00  0.00    +0.000 F 
ATOM     50  C40 UNL A   1      11.968  45.899   6.640  1.00  0.00    +0.000 C 
ATOM     51  F4  UNL A   1      12.463  45.247   7.702  1.00  0.00    +0.000 F 
ATOM     52  C41 UNL A   1      12.671  46.966   6.090  1.00  0.00    +0.000 C 
ATOM     53  F5  UNL A   1      13.836  47.329   6.649  1.00  0.00    +0.000 F 
ENDBRANCH   42   43
BRANCH   59   60
ATOM     65  C50 UNL A   1      17.465  47.219  -2.860  1.00  0.00    +0.000 C 
ATOM     66  F8  UNL A   1      17.911  46.510  -3.906  1.00  0.00    +0.000 F 
ATOM     67  C51 UNL A   1      16.230  47.847  -2.922  1.00  0.00    +0.000 C 
ATOM     68  F9  UNL A   1      15.475  47.731  -4.022  1.00  0.00    +0.000 F 
ATOM     69  C52 UNL A   1      15.775  48.601  -1.844  1.00  0.00    +0.000 C 
ATOM     70  F10 UNL A   1      14.583  49.208  -1.937  1.00  0.00    +0.000 F 
ATOM     60  C47 UNL A   1      16.541  48.721  -0.674  1.00  0.00    +0.000 C 
ATOM     61  C48 UNL A   1      17.778  48.063  -0.625  1.00  0.00    +0.000 C 
ATOM     62  F6  UNL A   1      18.552  48.161   0.466  1.00  0.00    +0.000 F 
ATOM     63  C49 UNL A   1      18.241  47.331  -1.715  1.00  0.00    +0.000 C 
ATOM     64  F7  UNL A   1      19.445  46.746  -1.663  1.00  0.00    +0.000 F 
ENDBRANCH   59   60
BRANCH   74   75
ATOM     75  C56 UNL A   1      17.544  55.284   1.422  1.00  0.00    +0.000 C 
ATOM     76  C57 UNL A   1      17.049  56.150   0.435  1.00  0.00    +0.000 C 
ATOM     77  F11 UNL A   1      15.823  55.954  -0.072  1.00  0.00    +0.000 F 
ATOM     78  C58 UNL A   1      17.827  57.194  -0.061  1.00  0.00    +0.000 C 
ATOM     79  F12 UNL A   1      17.346  57.981  -1.033  1.00  0.00    +0.000 F 
ATOM     80  C59 UNL A   1      19.102  57.409   0.439  1.00  0.00    +0.000 C 
ATOM     81  F13 UNL A   1      19.848  58.416  -0.035  1.00  0.00    +0.000 F 
ATOM     82  C60 UNL A   1      19.605  56.576   1.427  1.00  0.00    +0.000 C 
ATOM     83  F14 UNL A   1      20.832  56.789   1.922  1.00  0.00    +0.000 F 
ATOM     84  C61 UNL A   1      18.839  55.517   1.906  1.00  0.00    +0.000 C 
ATOM     85  F15 UNL A   1      19.353  54.721   2.855  1.00  0.00    +0.000 F 
ENDBRANCH   74   75
TORSDOF 22
ENDMDL
MODEL 2
REMARK VINA RESULT:      -7.9     43.530     46.588
ROOT
ATOM    136  H38 UNL A   1      19.604  33.758  47.393  1.00  0.00    +0.000 H 
ATOM    137  H39 UNL A   1      17.718  35.109  48.584  1.00  0.00    +0.000 H 
ATOM    138  H40 UNL A   1      20.960  37.621  48.020  1.00  0.00    +0.000 H 
ATOM    139  H41 UNL A   1      23.756  43.293  48.882  1.00  0.00    +0.000 H 
ATOM    140  H42 UNL A   1      25.581  41.983  47.696  1.00  0.00    +0.000 H 
ATOM    141  H43 UNL A   1      22.329  39.446  48.222  1.00  0.00    +0.000 H 
ATOM    142  H44 UNL A   1      18.758  42.213  50.427  1.00  0.00    +0.000 H 
ATOM    143  H45 UNL A   1      17.328  40.091  50.479  1.00  0.00    +0.000 H 
ATOM    144  H46 UNL A   1      24.493  35.029  45.585  1.00  0.00    +0.000 H 
ATOM    145  H47 UNL A   1      26.107  36.988  45.933  1.00  0.00    +0.000 H 
ATOM     38  C32 UNL A   1      24.891  39.278  47.113  1.00  0.00    +0.000 C 
ATOM     39  C33 UNL A   1      24.274  37.927  46.882  1.00  0.00    +0.000 C 
ATOM     40  N3  UNL A   1      23.067  37.508  47.167  1.00  0.00    +0.000 N 
ATOM     41  C34 UNL A   1      23.001  36.202  46.701  1.00  0.00    +0.000 C 
ATOM     42  C35 UNL A   1      21.977  35.319  46.802  1.00  0.00    +0.000 C 
ATOM     54  C42 UNL A   1      20.726  35.599  47.457  1.00  0.00    +0.000 C 
ATOM     55  C43 UNL A   1      19.653  34.751  47.669  1.00  0.00    +0.000 C 
ATOM     56  C44 UNL A   1      18.646  35.473  48.320  1.00  0.00    +0.000 C 
ATOM     57  C45 UNL A   1      19.109  36.758  48.550  1.00  0.00    +0.000 C 
ATOM     58  N4  UNL A   1      20.384  36.824  48.011  1.00  0.00    +0.000 N 
ATOM     59  C46 UNL A   1      18.439  37.848  49.212  1.00  0.00    +0.000 C 
ATOM     71  C53 UNL A   1      18.961  39.084  49.400  1.00  0.00    +0.000 C 
ATOM     72  N5  UNL A   1      20.205  39.571  49.025  1.00  0.00    +0.000 N 
ATOM     73  C54 UNL A   1      20.235  40.821  49.418  1.00  0.00    +0.000 C 
ATOM     74  C55 UNL A   1      21.347  41.826  49.298  1.00  0.00    +0.000 C 
ATOM     86  C62 UNL A   1      22.518  41.452  48.749  1.00  0.00    +0.000 C 
ATOM     87  C63 UNL A   1      23.686  42.310  48.577  1.00  0.00    +0.000 C 
ATOM     88  C64 UNL A   1      24.654  41.614  47.959  1.00  0.00    +0.000 C 
ATOM     89  C65 UNL A   1      24.182  40.250  47.718  1.00  0.00    +0.000 C 
ATOM     90  N6  UNL A   1      22.908  40.242  48.229  1.00  0.00    +0.000 N 
ATOM     91  C66 UNL A   1      18.997  41.277  50.066  1.00  0.00    +0.000 C 
ATOM     92  C67 UNL A   1      18.268  40.170  50.062  1.00  0.00    +0.000 C 
ATOM     93  C68 UNL A   1      24.272  35.910  46.076  1.00  0.00    +0.000 C 
ATOM     94  C69 UNL A   1      25.117  36.922  46.216  1.00  0.00    +0.000 C 
ENDROOT
BRANCH   38   37
ATOM     34  C28 UNL A   1      28.854  40.063  45.673  1.00  0.00    +0.000 C 
ATOM     35  C29 UNL A   1      27.757  40.653  45.037  1.00  0.00    +0.000 C 
ATOM     36  C30 UNL A   1      26.465  40.419  45.515  1.00  0.00    +0.000 C 
ATOM     37  C31 UNL A   1      26.259  39.570  46.614  1.00  0.00    +0.000 C 
ATOM    134  H36 UNL A   1      27.902  41.261  44.215  1.00  0.00    +0.000 H 
ATOM    135  H37 UNL A   1      25.659  40.873  45.058  1.00  0.00    +0.000 H 
ATOM    146  H48 UNL A   1      27.226  38.363  48.057  1.00  0.00    +0.000 H 
ATOM    147  H49 UNL A   1      29.472  38.909  47.330  1.00  0.00    +0.000 H 
ATOM     95  C70 UNL A   1      27.368  38.997  47.255  1.00  0.00    +0.000 C 
ATOM     96  C71 UNL A   1      28.660  39.279  46.814  1.00  0.00    +0.000 C 
BRANCH   34   32
ATOM     33  O3  UNL A   1      30.548  39.902  44.065  1.00  0.00    +0.000 O 
ATOM     32  C27 UNL A   1      30.213  40.341  45.153  1.00  0.00    +0.000 C 
BRANCH   32   31
ATOM    133  H35 UNL A   1      31.949  40.665  46.104  1.00  0.00    +0.000 H 
ATOM     31  N2  UNL A   1      31.094  41.101  45.888  1.00  0.00    +0.000 N 
BRANCH   31   30
ATOM    131  H33 UNL A   1      31.895  42.941  46.372  1.00  0.00    +0.000 H 
ATOM    132  H34 UNL A   1      30.238  42.964  45.764  1.00  0.00    +0.000 H 
ATOM     30  C26 UNL A   1      30.941  42.456  46.391  1.00  0.00    +0.000 C 
BRANCH   30   29
ATOM    129  H31 UNL A   1      30.474  41.486  48.217  1.00  0.00    +0.000 H 
ATOM    130  H32 UNL A   1      30.998  43.190  48.353  1.00  0.00    +0.000 H 
ATOM     29  C25 UNL A   1      30.404  42.477  47.821  1.00  0.00    +0.000 C 
BRANCH   29   28
ATOM     28  C24 UNL A   1      28.949  42.942  47.954  1.00  0.00    +0.000 C 
ATOM    127  H29 UNL A   1      28.958  43.983  48.201  1.00  0.00    +0.000 H 
ATOM    128  H30 UNL A   1      28.486  42.724  47.014  1.00  0.00    +0.000 H 
BRANCH   28   27
ATOM     27  C23 UNL A   1      28.112  42.213  49.013  1.00  0.00    +0.000 C 
ATOM    125  H27 UNL A   1      27.387  42.901  49.394  1.00  0.00    +0.000 H 
ATOM    126  H28 UNL A   1      27.680  41.367  48.519  1.00  0.00    +0.000 H 
BRANCH   27   26
ATOM     26  C22 UNL A   1      28.906  41.655  50.198  1.00  0.00    +0.000 C 
ATOM    123  H25 UNL A   1      29.897  42.056  50.156  1.00  0.00    +0.000 H 
ATOM    124  H26 UNL A   1      28.380  41.943  51.084  1.00  0.00    +0.000 H 
BRANCH   26   25
ATOM     25  C21 UNL A   1      29.006  40.126  50.221  1.00  0.00    +0.000 C 
ATOM    122  H24 UNL A   1      29.991  39.852  49.907  1.00  0.00    +0.000 H 
ATOM    121  H23 UNL A   1      28.265  39.721  49.564  1.00  0.00    +0.000 H 
BRANCH   25   24
ATOM    120  H22 UNL A   1      28.295  40.199  52.149  1.00  0.00    +0.000 H 
ATOM     24  N1  UNL A   1      28.792  39.596  51.550  1.00  0.00    +0.000 N 
BRANCH   24   22
ATOM     22  C20 UNL A   1      29.154  38.416  52.124  1.00  0.00    +0.000 C 
ATOM     23  O2  UNL A   1      30.155  38.457  52.851  1.00  0.00    +0.000 O 
BRANCH   22   20
ATOM    116  H18 UNL A   1      27.374  37.341  51.986  1.00  0.00    +0.000 H 
ATOM     20  C18 UNL A   1      28.410  37.085  51.911  1.00  0.00    +0.000 C 
BRANCH   20   19
ATOM      7  C6  UNL A   1      27.486  36.434  49.595  1.00  0.00    +0.000 C 
ATOM      8  C7  UNL A   1      27.723  36.010  48.269  1.00  0.00    +0.000 C 
ATOM      9  C8  UNL A   1      28.990  35.589  47.847  1.00  0.00    +0.000 C 
ATOM    104  H6  UNL A   1      26.943  36.012  47.593  1.00  0.00    +0.000 H 
ATOM     17  C15 UNL A   1      30.045  35.641  48.753  1.00  0.00    +0.000 C 
ATOM     18  C16 UNL A   1      29.833  36.089  50.055  1.00  0.00    +0.000 C 
ATOM     19  C17 UNL A   1      28.574  36.529  50.497  1.00  0.00    +0.000 C 
ATOM    115  H17 UNL A   1      30.625  36.098  50.715  1.00  0.00    +0.000 H 
ATOM    114  H16 UNL A   1      30.988  35.346  48.459  1.00  0.00    +0.000 H 
BRANCH    7    6
ATOM     97  C72 UNL A   1      25.210  35.444  50.078  1.00  0.00    +0.000 C 
ATOM     98  C73 UNL A   1      23.872  35.627  50.460  1.00  0.00    +0.000 C 
ATOM      3  C2  UNL A   1      23.382  36.893  50.819  1.00  0.00    +0.000 C 
ATOM      4  C3  UNL A   1      24.262  37.975  50.787  1.00  0.00    +0.000 C 
ATOM      5  C4  UNL A   1      25.590  37.795  50.397  1.00  0.00    +0.000 C 
ATOM    102  H4  UNL A   1      23.929  38.915  51.053  1.00  0.00    +0.000 H 
ATOM      6  C5  UNL A   1      26.085  36.531  50.034  1.00  0.00    +0.000 C 
ATOM    103  H5  UNL A   1      26.222  38.609  50.375  1.00  0.00    +0.000 H 
ATOM    148  H50 UNL A   1      25.549  34.501  49.831  1.00  0.00    +0.000 H 
ATOM    149  H51 UNL A   1      23.235  34.816  50.477  1.00  0.00    +0.000 H 
BRANCH    3    2
ATOM      2  S1  UNL A   1      21.654  37.020  51.263  1.00  0.00    +0.000 S 
BRANCH    2    1
ATOM      1  C1  UNL A   1      21.594  38.525  52.276  1.00  0.00    +0.000 C 
ATOM     99  H1  UNL A   1      21.708  39.383  51.647  1.00  0.00    +0.000 H 
ATOM    100  H2  UNL A   1      22.384  38.503  52.996  1.00  0.00    +0.000 H 
ATOM    101  H3  UNL A   1      20.651  38.577  52.782  1.00  0.00    +0.000 H 
ENDBRANCH    2    1
ENDBRANCH    3    2
ENDBRANCH    7    6
BRANCH    9   10
ATOM    105  H7  UNL A   1      29.076  33.897  46.602  1.00  0.00    +0.000 H 
ATOM     10  C9  UNL A   1      29.189  34.955  46.493  1.00  0.00    +0.000 C 
ATOM    106  H8  UNL A   1      30.166  35.248  46.168  1.00  0.00    +0.000 H 
BRANCH   10   11
ATOM     11  C10 UNL A   1      28.216  35.429  45.404  1.00  0.00    +0.000 C 
ATOM    108  H10 UNL A   1      29.657  36.843  44.652  1.00  0.00    +0.000 H 
ATOM     12  C11 UNL A   1      28.777  36.342  44.304  1.00  0.00    +0.000 C 
ATOM    107  H9  UNL A   1      27.506  35.958  46.003  1.00  0.00    +0.000 H 
ATOM     15  C14 UNL A   1      27.673  34.272  44.593  1.00  0.00    +0.000 C 
ATOM    109  H11 UNL A   1      28.070  37.096  44.025  1.00  0.00    +0.000 H 
ATOM     13  C12 UNL A   1      29.115  35.434  43.127  1.00  0.00    +0.000 C 
ATOM     14  C13 UNL A   1      28.037  34.360  43.136  1.00  0.00    +0.000 C 
ATOM     16  O1  UNL A   1      26.988  33.373  45.066  1.00  0.00    +0.000 O 
ATOM    110  H12 UNL A   1      30.083  34.997  43.255  1.00  0.00    +0.000 H 
ATOM    111  H13 UNL A   1      29.141  35.970  42.201  1.00  0.00    +0.000 H 
ATOM    112  H14 UNL A   1      28.419  33.428  42.775  1.00  0.00    +0.000 H 
ATOM    113  H15 UNL A   1      27.206  34.587  42.502  1.00  0.00    +0.000 H 
ENDBRANCH   10   11
ENDBRANCH    9   10
ENDBRANCH   20   19
BRANCH   20   21
ATOM    117  H19 UNL A   1      28.172  35.116  52.712  1.00  0.00    +0.000 H 
ATOM     21  C19 UNL A   1      28.554  36.062  53.038  1.00  0.00    +0.000 C 
ATOM    118  H20 UNL A   1      28.005  36.393  53.894  1.00  0.00    +0.000 H 
ATOM    119  H21 UNL A   1      29.588  35.959  53.296  1.00  0.00    +0.000 H 
ENDBRANCH   20   21
ENDBRANCH   22   20
ENDBRANCH   24   22
ENDBRANCH   25   24
ENDBRANCH   26   25
ENDBRANCH   27   26
ENDBRANCH   28   27
ENDBRANCH   29   28
ENDBRANCH   30   29
ENDBRANCH   31   30
ENDBRANCH   32   31
ENDBRANCH   34   32
ENDBRANCH   38   37
BRANCH   42   43
ATOM     43  C36 UNL A   1      22.170  33.961  46.194  1.00  0.00    +0.000 C 
ATOM     44  C37 UNL A   1      21.610  33.627  44.952  1.00  0.00    +0.000 C 
ATOM     45  F1  UNL A   1      20.841  34.509  44.299  1.00  0.00    +0.000 F 
ATOM     46  C38 UNL A   1      21.808  32.366  44.393  1.00  0.00    +0.000 C 
ATOM     47  F2  UNL A   1      21.227  32.054  43.227  1.00  0.00    +0.000 F 
ATOM     48  C39 UNL A   1      22.596  31.430  45.048  1.00  0.00    +0.000 C 
ATOM     49  F3  UNL A   1      22.790  30.221  44.506  1.00  0.00    +0.000 F 
ATOM     50  C40 UNL A   1      23.174  31.747  46.267  1.00  0.00    +0.000 C 
ATOM     51  F4  UNL A   1      23.944  30.847  46.896  1.00  0.00    +0.000 F 
ATOM     52  C41 UNL A   1      22.956  32.996  46.842  1.00  0.00    +0.000 C 
ATOM     53  F5  UNL A   1      23.518  33.268  48.029  1.00  0.00    +0.000 F 
ENDBRANCH   42   43
BRANCH   59   60
ATOM     65  C50 UNL A   1      14.470  37.180  50.751  1.00  0.00    +0.000 C 
ATOM     66  F8  UNL A   1      13.235  36.972  51.226  1.00  0.00    +0.000 F 
ATOM     67  C51 UNL A   1      14.677  37.319  49.386  1.00  0.00    +0.000 C 
ATOM     68  F9  UNL A   1      13.636  37.262  48.544  1.00  0.00    +0.000 F 
ATOM     69  C52 UNL A   1      15.962  37.513  48.890  1.00  0.00    +0.000 C 
ATOM     70  F10 UNL A   1      16.133  37.632  47.565  1.00  0.00    +0.000 F 
ATOM     60  C47 UNL A   1      17.064  37.595  49.756  1.00  0.00    +0.000 C 
ATOM     61  C48 UNL A   1      16.832  37.469  51.133  1.00  0.00    +0.000 C 
ATOM     62  F6  UNL A   1      17.856  37.525  51.998  1.00  0.00    +0.000 F 
ATOM     63  C49 UNL A   1      15.547  37.249  51.623  1.00  0.00    +0.000 C 
ATOM     64  F7  UNL A   1      15.354  37.090  52.940  1.00  0.00    +0.000 F 
ENDBRANCH   59   60
BRANCH   74   75
ATOM     75  C56 UNL A   1      21.178  43.211  49.805  1.00  0.00    +0.000 C 
ATOM     76  C57 UNL A   1      21.472  43.528  51.139  1.00  0.00    +0.000 C 
ATOM     77  F11 UNL A   1      21.889  42.567  51.977  1.00  0.00    +0.000 F 
ATOM     78  C58 UNL A   1      21.302  44.822  51.626  1.00  0.00    +0.000 C 
ATOM     79  F12 UNL A   1      21.551  45.089  52.915  1.00  0.00    +0.000 F 
ATOM     80  C59 UNL A   1      20.861  45.830  50.781  1.00  0.00    +0.000 C 
ATOM     81  F13 UNL A   1      20.702  47.075  51.248  1.00  0.00    +0.000 F 
ATOM     82  C60 UNL A   1      20.581  45.544  49.453  1.00  0.00    +0.000 C 
ATOM     83  F14 UNL A   1      20.167  46.517  48.632  1.00  0.00    +0.000 F 
ATOM     84  C61 UNL A   1      20.726  44.245  48.972  1.00  0.00    +0.000 C 
ATOM     85  F15 UNL A   1      20.439  43.994  47.686  1.00  0.00    +0.000 F 
ENDBRANCH   74   75
TORSDOF 22
ENDMDL
MODEL 3
REMARK VINA RESULT:      -7.8      1.053      7.152
ROOT
ATOM    136  H38 UNL A   1      18.594  53.391  -1.040  1.00  0.00    +0.000 H 
ATOM    137  H39 UNL A   1      18.167  50.897  -1.670  1.00  0.00    +0.000 H 
ATOM    138  H40 UNL A   1      15.855  51.817   1.639  1.00  0.00    +0.000 H 
ATOM    139  H41 UNL A   1      11.812  49.981   6.224  1.00  0.00    +0.000 H 
ATOM    140  H42 UNL A   1      12.209  52.419   6.818  1.00  0.00    +0.000 H 
ATOM    141  H43 UNL A   1      14.518  51.532   3.476  1.00  0.00    +0.000 H 
ATOM    142  H44 UNL A   1      13.511  46.742   2.330  1.00  0.00    +0.000 H 
ATOM    143  H45 UNL A   1      15.236  46.964   0.452  1.00  0.00    +0.000 H 
ATOM    144  H46 UNL A   1      16.585  56.659   2.712  1.00  0.00    +0.000 H 
ATOM    145  H47 UNL A   1      15.229  56.341   4.862  1.00  0.00    +0.000 H 
ATOM     38  C32 UNL A   1      14.046  53.760   5.099  1.00  0.00    +0.000 C 
ATOM     39  C33 UNL A   1      14.995  54.242   4.037  1.00  0.00    +0.000 C 
ATOM     40  N3  UNL A   1      15.482  53.597   3.007  1.00  0.00    +0.000 N 
ATOM     41  C34 UNL A   1      16.265  54.516   2.322  1.00  0.00    +0.000 C 
ATOM     42  C35 UNL A   1      17.022  54.322   1.215  1.00  0.00    +0.000 C 
ATOM     54  C42 UNL A   1      17.159  53.060   0.537  1.00  0.00    +0.000 C 
ATOM     55  C43 UNL A   1      17.952  52.746  -0.553  1.00  0.00    +0.000 C 
ATOM     56  C44 UNL A   1      17.733  51.404  -0.884  1.00  0.00    +0.000 C 
ATOM     57  C45 UNL A   1      16.834  50.872   0.026  1.00  0.00    +0.000 C 
ATOM     58  N4  UNL A   1      16.486  51.899   0.888  1.00  0.00    +0.000 N 
ATOM     59  C46 UNL A   1      16.329  49.525   0.105  1.00  0.00    +0.000 C 
ATOM     71  C53 UNL A   1      15.447  49.078   1.031  1.00  0.00    +0.000 C 
ATOM     72  N5  UNL A   1      14.853  49.771   2.077  1.00  0.00    +0.000 N 
ATOM     73  C54 UNL A   1      14.071  48.911   2.681  1.00  0.00    +0.000 C 
ATOM     74  C55 UNL A   1      13.205  49.105   3.895  1.00  0.00    +0.000 C 
ATOM     86  C62 UNL A   1      13.206  50.297   4.520  1.00  0.00    +0.000 C 
ATOM     87  C63 UNL A   1      12.429  50.630   5.711  1.00  0.00    +0.000 C 
ATOM     88  C64 UNL A   1      12.646  51.916   6.030  1.00  0.00    +0.000 C 
ATOM     89  C65 UNL A   1      13.602  52.489   5.082  1.00  0.00    +0.000 C 
ATOM     90  N6  UNL A   1      13.887  51.454   4.228  1.00  0.00    +0.000 N 
ATOM     91  C66 UNL A   1      14.061  47.575   2.068  1.00  0.00    +0.000 C 
ATOM     92  C67 UNL A   1      14.944  47.720   1.090  1.00  0.00    +0.000 C 
ATOM     93  C68 UNL A   1      16.155  55.774   3.027  1.00  0.00    +0.000 C 
ATOM     94  C69 UNL A   1      15.433  55.643   4.130  1.00  0.00    +0.000 C 
ENDROOT
BRANCH   38   37
ATOM     34  C28 UNL A   1      12.527  56.449   8.074  1.00  0.00    +0.000 C 
ATOM     35  C29 UNL A   1      13.744  55.794   8.291  1.00  0.00    +0.000 C 
ATOM     36  C30 UNL A   1      14.255  54.934   7.315  1.00  0.00    +0.000 C 
ATOM     37  C31 UNL A   1      13.539  54.700   6.130  1.00  0.00    +0.000 C 
ATOM    134  H36 UNL A   1      14.263  55.945   9.170  1.00  0.00    +0.000 H 
ATOM    135  H37 UNL A   1      15.163  54.468   7.467  1.00  0.00    +0.000 H 
ATOM    146  H48 UNL A   1      11.789  55.203   5.054  1.00  0.00    +0.000 H 
ATOM    147  H49 UNL A   1      10.993  56.823   6.672  1.00  0.00    +0.000 H 
ATOM     95  C70 UNL A   1      12.328  55.376   5.917  1.00  0.00    +0.000 C 
ATOM     96  C71 UNL A   1      11.849  56.279   6.864  1.00  0.00    +0.000 C 
BRANCH   34   32
ATOM     33  O3  UNL A   1      12.202  58.569   9.015  1.00  0.00    +0.000 O 
ATOM     32  C27 UNL A   1      12.016  57.367   9.120  1.00  0.00    +0.000 C 
BRANCH   32   31
ATOM    133  H35 UNL A   1      10.663  57.482  10.595  1.00  0.00    +0.000 H 
ATOM     31  N2  UNL A   1      11.325  56.870  10.201  1.00  0.00    +0.000 N 
BRANCH   31   30
ATOM    131  H33 UNL A   1      11.977  54.911  10.198  1.00  0.00    +0.000 H 
ATOM    132  H34 UNL A   1      11.941  55.703  11.775  1.00  0.00    +0.000 H 
ATOM     30  C26 UNL A   1      11.433  55.571  10.843  1.00  0.00    +0.000 C 
BRANCH   30   29
ATOM    129  H31 UNL A   1       9.551  55.604  11.817  1.00  0.00    +0.000 H 
ATOM    130  H32 UNL A   1       9.570  54.868  10.188  1.00  0.00    +0.000 H 
ATOM     29  C25 UNL A   1      10.063  54.960  11.133  1.00  0.00    +0.000 C 
BRANCH   29   28
ATOM     28  C24 UNL A   1      10.101  53.553  11.739  1.00  0.00    +0.000 C 
ATOM    127  H29 UNL A   1      10.042  53.652  12.802  1.00  0.00    +0.000 H 
ATOM    128  H30 UNL A   1       9.276  53.027  11.306  1.00  0.00    +0.000 H 
BRANCH   28   27
ATOM     27  C23 UNL A   1      11.347  52.720  11.411  1.00  0.00    +0.000 C 
ATOM    125  H27 UNL A   1      11.747  53.073  10.484  1.00  0.00    +0.000 H 
ATOM    126  H28 UNL A   1      12.014  52.844  12.239  1.00  0.00    +0.000 H 
BRANCH   27   26
ATOM     26  C22 UNL A   1      11.105  51.213  11.281  1.00  0.00    +0.000 C 
ATOM    123  H25 UNL A   1      11.133  50.958  10.242  1.00  0.00    +0.000 H 
ATOM    124  H26 UNL A   1      11.873  50.728  11.846  1.00  0.00    +0.000 H 
BRANCH   26   25
ATOM     25  C21 UNL A   1       9.767  50.740  11.858  1.00  0.00    +0.000 C 
ATOM    122  H24 UNL A   1       8.993  51.017  11.173  1.00  0.00    +0.000 H 
ATOM    121  H23 UNL A   1       9.620  51.201  12.812  1.00  0.00    +0.000 H 
BRANCH   25   24
ATOM    120  H22 UNL A   1       8.907  48.881  11.690  1.00  0.00    +0.000 H 
ATOM     24  N1  UNL A   1       9.732  49.303  12.021  1.00  0.00    +0.000 N 
BRANCH   24   22
ATOM     22  C20 UNL A   1      10.632  48.429  12.549  1.00  0.00    +0.000 C 
ATOM     23  O2  UNL A   1      10.922  48.610  13.738  1.00  0.00    +0.000 O 
BRANCH   22   20
ATOM    116  H18 UNL A   1      10.507  46.912  11.126  1.00  0.00    +0.000 H 
ATOM     20  C18 UNL A   1      11.284  47.277  11.763  1.00  0.00    +0.000 C 
BRANCH   20   19
ATOM      7  C6  UNL A   1      12.096  48.177   9.488  1.00  0.00    +0.000 C 
ATOM      8  C7  UNL A   1      13.137  48.703   8.692  1.00  0.00    +0.000 C 
ATOM      9  C8  UNL A   1      14.464  48.725   9.138  1.00  0.00    +0.000 C 
ATOM    104  H6  UNL A   1      12.915  49.080   7.758  1.00  0.00    +0.000 H 
ATOM     17  C15 UNL A   1      14.743  48.261  10.420  1.00  0.00    +0.000 C 
ATOM     18  C16 UNL A   1      13.721  47.771  11.230  1.00  0.00    +0.000 C 
ATOM     19  C17 UNL A   1      12.380  47.752  10.809  1.00  0.00    +0.000 C 
ATOM    115  H17 UNL A   1      13.955  47.413  12.168  1.00  0.00    +0.000 H 
ATOM    114  H16 UNL A   1      15.712  48.280  10.773  1.00  0.00    +0.000 H 
BRANCH    7    6
ATOM     97  C72 UNL A   1      10.179  48.767   7.948  1.00  0.00    +0.000 C 
ATOM     98  C73 UNL A   1       8.933  48.437   7.392  1.00  0.00    +0.000 C 
ATOM      3  C2  UNL A   1       8.304  47.217   7.685  1.00  0.00    +0.000 C 
ATOM      4  C3  UNL A   1       8.949  46.331   8.548  1.00  0.00    +0.000 C 
ATOM      5  C4  UNL A   1      10.183  46.664   9.109  1.00  0.00    +0.000 C 
ATOM    102  H4  UNL A   1       8.512  45.424   8.774  1.00  0.00    +0.000 H 
ATOM      6  C5  UNL A   1      10.816  47.885   8.822  1.00  0.00    +0.000 C 
ATOM    103  H5  UNL A   1      10.641  45.998   9.749  1.00  0.00    +0.000 H 
ATOM    148  H50 UNL A   1      10.627  49.665   7.707  1.00  0.00    +0.000 H 
ATOM    149  H51 UNL A   1       8.470  49.105   6.757  1.00  0.00    +0.000 H 
BRANCH    3    2
ATOM      2  S1  UNL A   1       6.705  46.908   6.945  1.00  0.00    +0.000 S 
BRANCH    2    1
ATOM      1  C1  UNL A   1       5.583  46.885   8.372  1.00  0.00    +0.000 C 
ATOM     99  H1  UNL A   1       5.861  47.657   9.057  1.00  0.00    +0.000 H 
ATOM    100  H2  UNL A   1       5.646  45.935   8.861  1.00  0.00    +0.000 H 
ATOM    101  H3  UNL A   1       4.579  47.048   8.039  1.00  0.00    +0.000 H 
ENDBRANCH    2    1
ENDBRANCH    3    2
ENDBRANCH    7    6
BRANCH    9   10
ATOM    105  H7  UNL A   1      15.224  49.060   7.207  1.00  0.00    +0.000 H 
ATOM     10  C9  UNL A   1      15.592  49.103   8.211  1.00  0.00    +0.000 C 
ATOM    106  H8  UNL A   1      16.383  48.410   8.405  1.00  0.00    +0.000 H 
BRANCH   10   11
ATOM     11  C10 UNL A   1      16.182  50.502   8.442  1.00  0.00    +0.000 C 
ATOM    108  H10 UNL A   1      14.238  51.413   8.256  1.00  0.00    +0.000 H 
ATOM     12  C11 UNL A   1      15.194  51.655   8.673  1.00  0.00    +0.000 C 
ATOM    107  H9  UNL A   1      16.707  50.639   7.521  1.00  0.00    +0.000 H 
ATOM     15  C14 UNL A   1      17.019  50.558   9.701  1.00  0.00    +0.000 C 
ATOM    109  H11 UNL A   1      15.529  52.556   8.202  1.00  0.00    +0.000 H 
ATOM     13  C12 UNL A   1      15.085  51.826  10.185  1.00  0.00    +0.000 C 
ATOM     14  C13 UNL A   1      16.479  51.530  10.716  1.00  0.00    +0.000 C 
ATOM     16  O1  UNL A   1      18.041  49.904   9.868  1.00  0.00    +0.000 O 
ATOM    110  H12 UNL A   1      14.373  51.138  10.590  1.00  0.00    +0.000 H 
ATOM    111  H13 UNL A   1      14.751  52.806  10.455  1.00  0.00    +0.000 H 
ATOM    112  H14 UNL A   1      16.435  51.087  11.689  1.00  0.00    +0.000 H 
ATOM    113  H15 UNL A   1      17.084  52.404  10.833  1.00  0.00    +0.000 H 
ENDBRANCH   10   11
ENDBRANCH    9   10
ENDBRANCH   20   19
BRANCH   20   21
ATOM    117  H19 UNL A   1      12.088  46.321  13.499  1.00  0.00    +0.000 H 
ATOM     21  C19 UNL A   1      11.623  46.030  12.580  1.00  0.00    +0.000 C 
ATOM    118  H20 UNL A   1      12.290  45.408  12.023  1.00  0.00    +0.000 H 
ATOM    119  H21 UNL A   1      10.724  45.488  12.791  1.00  0.00    +0.000 H 
ENDBRANCH   20   21
ENDBRANCH   22   20
ENDBRANCH   24   22
ENDBRANCH   25   24
ENDBRANCH   26   25
ENDBRANCH   27   26
ENDBRANCH   28   27
ENDBRANCH   29   28
ENDBRANCH   30   29
ENDBRANCH   31   30
ENDBRANCH   32   31
ENDBRANCH   34   32
ENDBRANCH   38   37
BRANCH   42   43
ATOM     43  C36 UNL A   1      17.769  55.504   0.669  1.00  0.00    +0.000 C 
ATOM     44  C37 UNL A   1      19.032  55.864   1.160  1.00  0.00    +0.000 C 
ATOM     45  F1  UNL A   1      19.583  55.180   2.174  1.00  0.00    +0.000 F 
ATOM     46  C38 UNL A   1      19.721  56.956   0.635  1.00  0.00    +0.000 C 
ATOM     47  F2  UNL A   1      20.906  57.309   1.151  1.00  0.00    +0.000 F 
ATOM     48  C39 UNL A   1      19.175  57.684  -0.411  1.00  0.00    +0.000 C 
ATOM     49  F3  UNL A   1      19.841  58.730  -0.919  1.00  0.00    +0.000 F 
ATOM     50  C40 UNL A   1      17.936  57.333  -0.925  1.00  0.00    +0.000 C 
ATOM     51  F4  UNL A   1      17.413  58.030  -1.943  1.00  0.00    +0.000 F 
ATOM     52  C41 UNL A   1      17.233  56.260  -0.384  1.00  0.00    +0.000 C 
ATOM     53  F5  UNL A   1      16.031  55.953  -0.894  1.00  0.00    +0.000 F 
ENDBRANCH   42   43
BRANCH   59   60
ATOM     65  C50 UNL A   1      17.716  46.632  -2.770  1.00  0.00    +0.000 C 
ATOM     66  F8  UNL A   1      18.144  45.733  -3.667  1.00  0.00    +0.000 F 
ATOM     67  C51 UNL A   1      16.508  47.286  -2.963  1.00  0.00    +0.000 C 
ATOM     68  F9  UNL A   1      15.761  47.005  -4.039  1.00  0.00    +0.000 F 
ATOM     69  C52 UNL A   1      16.072  48.235  -2.044  1.00  0.00    +0.000 C 
ATOM     70  F10 UNL A   1      14.906  48.860  -2.263  1.00  0.00    +0.000 F 
ATOM     60  C47 UNL A   1      16.830  48.531  -0.900  1.00  0.00    +0.000 C 
ATOM     61  C48 UNL A   1      18.039  47.846  -0.714  1.00  0.00    +0.000 C 
ATOM     62  F6  UNL A   1      18.805  48.107   0.356  1.00  0.00    +0.000 F 
ATOM     63  C49 UNL A   1      18.484  46.916  -1.650  1.00  0.00    +0.000 C 
ATOM     64  F7  UNL A   1      19.663  46.304  -1.474  1.00  0.00    +0.000 F 
ENDBRANCH   59   60
BRANCH   74   75
ATOM     75  C56 UNL A   1      12.377  47.993   4.426  1.00  0.00    +0.000 C 
ATOM     76  C57 UNL A   1      12.868  47.152   5.435  1.00  0.00    +0.000 C 
ATOM     77  F11 UNL A   1      14.108  47.336   5.913  1.00  0.00    +0.000 F 
ATOM     78  C58 UNL A   1      12.104  46.097   5.927  1.00  0.00    +0.000 C 
ATOM     79  F12 UNL A   1      12.612  45.283   6.862  1.00  0.00    +0.000 F 
ATOM     80  C59 UNL A   1      10.823  45.879   5.440  1.00  0.00    +0.000 C 
ATOM     81  F13 UNL A   1      10.086  44.868   5.916  1.00  0.00    +0.000 F 
ATOM     82  C60 UNL A   1      10.311  46.709   4.454  1.00  0.00    +0.000 C 
ATOM     83  F14 UNL A   1       9.070  46.509   3.990  1.00  0.00    +0.000 F 
ATOM     84  C61 UNL A   1      11.084  47.748   3.943  1.00  0.00    +0.000 C 
ATOM     85  F15 UNL A   1      10.568  48.529   2.982  1.00  0.00    +0.000 F 
ENDBRANCH   74   75
TORSDOF 22
ENDMDL
MODEL 4
REMARK VINA RESULT:      -7.7      1.954      3.803
ROOT
ATOM    136  H38 UNL A   1      13.244  46.501   2.830  1.00  0.00    +0.000 H 
ATOM    137  H39 UNL A   1      14.915  46.890   0.867  1.00  0.00    +0.000 H 
ATOM    138  H40 UNL A   1      14.561  50.424   2.994  1.00  0.00    +0.000 H 
ATOM    139  H41 UNL A   1      15.978  56.609   3.687  1.00  0.00    +0.000 H 
ATOM    140  H42 UNL A   1      14.372  56.218   5.616  1.00  0.00    +0.000 H 
ATOM    141  H43 UNL A   1      14.731  52.647   3.516  1.00  0.00    +0.000 H 
ATOM    142  H44 UNL A   1      18.049  53.530  -0.157  1.00  0.00    +0.000 H 
ATOM    143  H45 UNL A   1      17.633  51.126  -0.932  1.00  0.00    +0.000 H 
ATOM    144  H46 UNL A   1      11.468  49.582   6.848  1.00  0.00    +0.000 H 
ATOM    145  H47 UNL A   1      11.504  52.090   7.368  1.00  0.00    +0.000 H 
ATOM     38  C32 UNL A   1      13.330  53.567   5.755  1.00  0.00    +0.000 C 
ATOM     39  C33 UNL A   1      12.969  52.113   5.637  1.00  0.00    +0.000 C 
ATOM     40  N3  UNL A   1      13.402  51.219   4.784  1.00  0.00    +0.000 N 
ATOM     41  C34 UNL A   1      12.791  50.026   5.145  1.00  0.00    +0.000 C 
ATOM     42  C35 UNL A   1      12.875  48.816   4.539  1.00  0.00    +0.000 C 
ATOM     54  C42 UNL A   1      13.642  48.556   3.349  1.00  0.00    +0.000 C 
ATOM     55  C43 UNL A   1      13.739  47.382   2.623  1.00  0.00    +0.000 C 
ATOM     56  C44 UNL A   1      14.626  47.595   1.562  1.00  0.00    +0.000 C 
ATOM     57  C45 UNL A   1      15.049  48.914   1.604  1.00  0.00    +0.000 C 
ATOM     58  N4  UNL A   1      14.442  49.490   2.708  1.00  0.00    +0.000 N 
ATOM     59  C46 UNL A   1      15.941  49.599   0.703  1.00  0.00    +0.000 C 
ATOM     71  C53 UNL A   1      16.307  50.899   0.811  1.00  0.00    +0.000 C 
ATOM     72  N5  UNL A   1      15.928  51.837   1.760  1.00  0.00    +0.000 N 
ATOM     73  C54 UNL A   1      16.555  52.942   1.445  1.00  0.00    +0.000 C 
ATOM     74  C55 UNL A   1      16.497  54.289   2.112  1.00  0.00    +0.000 C 
ATOM     86  C62 UNL A   1      15.683  54.467   3.169  1.00  0.00    +0.000 C 
ATOM     87  C63 UNL A   1      15.514  55.714   3.908  1.00  0.00    +0.000 C 
ATOM     88  C64 UNL A   1      14.657  55.510   4.922  1.00  0.00    +0.000 C 
ATOM     89  C65 UNL A   1      14.195  54.122   4.884  1.00  0.00    +0.000 C 
ATOM     90  N6  UNL A   1      14.848  53.581   3.806  1.00  0.00    +0.000 N 
ATOM     91  C66 UNL A   1      17.428  52.823   0.269  1.00  0.00    +0.000 C 
ATOM     92  C67 UNL A   1      17.212  51.568  -0.101  1.00  0.00    +0.000 C 
ATOM     93  C68 UNL A   1      11.992  50.298   6.319  1.00  0.00    +0.000 C 
ATOM     94  C69 UNL A   1      12.017  51.587   6.627  1.00  0.00    +0.000 C 
ENDROOT
BRANCH   38   37
ATOM     34  C28 UNL A   1      11.827  55.950   8.989  1.00  0.00    +0.000 C 
ATOM     35  C29 UNL A   1      11.074  55.820   7.816  1.00  0.00    +0.000 C 
ATOM     36  C30 UNL A   1      11.549  55.027   6.768  1.00  0.00    +0.000 C 
ATOM     37  C31 UNL A   1      12.791  54.383   6.873  1.00  0.00    +0.000 C 
ATOM    134  H36 UNL A   1      10.170  56.310   7.726  1.00  0.00    +0.000 H 
ATOM    135  H37 UNL A   1      10.982  54.915   5.913  1.00  0.00    +0.000 H 
ATOM    146  H48 UNL A   1      14.449  54.045   8.142  1.00  0.00    +0.000 H 
ATOM    147  H49 UNL A   1      13.543  55.281  10.020  1.00  0.00    +0.000 H 
ATOM     95  C70 UNL A   1      13.530  54.506   8.060  1.00  0.00    +0.000 C 
ATOM     96  C71 UNL A   1      13.028  55.249   9.128  1.00  0.00    +0.000 C 
BRANCH   34   32
ATOM     33  O3  UNL A   1      11.307  58.002   9.990  1.00  0.00    +0.000 O 
ATOM     32  C27 UNL A   1      11.292  56.786  10.089  1.00  0.00    +0.000 C 
BRANCH   32   31
ATOM    133  H35 UNL A   1      10.946  56.667  12.061  1.00  0.00    +0.000 H 
ATOM     31  N2  UNL A   1      10.768  56.194  11.216  1.00  0.00    +0.000 N 
BRANCH   31   30
ATOM    131  H33 UNL A   1       9.217  55.125  12.059  1.00  0.00    +0.000 H 
ATOM    132  H34 UNL A   1       9.581  54.744  10.375  1.00  0.00    +0.000 H 
ATOM     30  C26 UNL A   1       9.992  54.972  11.337  1.00  0.00    +0.000 C 
BRANCH   30   29
ATOM    129  H31 UNL A   1      11.843  54.148  11.959  1.00  0.00    +0.000 H 
ATOM    130  H32 UNL A   1      10.381  53.384  12.648  1.00  0.00    +0.000 H 
ATOM     29  C25 UNL A   1      10.852  53.789  11.777  1.00  0.00    +0.000 C 
BRANCH   29   28
ATOM     28  C24 UNL A   1      10.940  52.645  10.761  1.00  0.00    +0.000 C 
ATOM    127  H29 UNL A   1      11.932  52.634  10.362  1.00  0.00    +0.000 H 
ATOM    128  H30 UNL A   1      10.680  51.757  11.299  1.00  0.00    +0.000 H 
BRANCH   28   27
ATOM     27  C23 UNL A   1       9.960  52.723   9.583  1.00  0.00    +0.000 C 
ATOM    125  H27 UNL A   1       9.097  53.268   9.906  1.00  0.00    +0.000 H 
ATOM    126  H28 UNL A   1      10.491  53.198   8.785  1.00  0.00    +0.000 H 
BRANCH   27   26
ATOM     26  C22 UNL A   1       9.490  51.371   9.038  1.00  0.00    +0.000 C 
ATOM    123  H25 UNL A   1       8.448  51.446   8.807  1.00  0.00    +0.000 H 
ATOM    124  H26 UNL A   1      10.090  51.161   8.177  1.00  0.00    +0.000 H 
BRANCH   26   25
ATOM     25  C21 UNL A   1       9.685  50.201  10.008  1.00  0.00    +0.000 C 
ATOM    122  H24 UNL A   1       8.721  49.873  10.332  1.00  0.00    +0.000 H 
ATOM    121  H23 UNL A   1      10.277  50.533  10.835  1.00  0.00    +0.000 H 
BRANCH   25   24
ATOM    120  H22 UNL A   1      10.493  49.198   8.405  1.00  0.00    +0.000 H 
ATOM     24  N1  UNL A   1      10.351  49.085   9.373  1.00  0.00    +0.000 N 
BRANCH   24   22
ATOM     22  C20 UNL A   1      10.818  47.906   9.870  1.00  0.00    +0.000 C 
ATOM     23  O2  UNL A   1      10.091  46.921   9.687  1.00  0.00    +0.000 O 
BRANCH   22   20
ATOM    116  H18 UNL A   1      12.889  48.126   9.948  1.00  0.00    +0.000 H 
ATOM     20  C18 UNL A   1      12.150  47.751  10.624  1.00  0.00    +0.000 C 
BRANCH   20   19
ATOM      7  C6  UNL A   1      13.030  49.839  11.853  1.00  0.00    +0.000 C 
ATOM      8  C7  UNL A   1      12.997  50.687  12.982  1.00  0.00    +0.000 C 
ATOM      9  C8  UNL A   1      12.290  50.342  14.139  1.00  0.00    +0.000 C 
ATOM    104  H6  UNL A   1      13.507  51.584  12.952  1.00  0.00    +0.000 H 
ATOM     17  C15 UNL A   1      11.563  49.156  14.148  1.00  0.00    +0.000 C 
ATOM     18  C16 UNL A   1      11.559  48.325  13.029  1.00  0.00    +0.000 C 
ATOM     19  C17 UNL A   1      12.250  48.657  11.852  1.00  0.00    +0.000 C 
ATOM    115  H17 UNL A   1      11.031  47.440  13.066  1.00  0.00    +0.000 H 
ATOM    114  H16 UNL A   1      11.026  48.889  14.987  1.00  0.00    +0.000 H 
BRANCH    7    6
ATOM     97  C72 UNL A   1      13.826  50.894   9.697  1.00  0.00    +0.000 C 
ATOM     98  C73 UNL A   1      14.838  51.064   8.741  1.00  0.00    +0.000 C 
ATOM      3  C2  UNL A   1      16.101  50.472   8.900  1.00  0.00    +0.000 C 
ATOM      4  C3  UNL A   1      16.330  49.703  10.040  1.00  0.00    +0.000 C 
ATOM      5  C4  UNL A   1      15.320  49.524  10.987  1.00  0.00    +0.000 C 
ATOM    102  H4  UNL A   1      17.252  49.262  10.185  1.00  0.00    +0.000 H 
ATOM      6  C5  UNL A   1      14.053  50.112  10.831  1.00  0.00    +0.000 C 
ATOM    103  H5  UNL A   1      15.508  48.946  11.820  1.00  0.00    +0.000 H 
ATOM    148  H50 UNL A   1      12.910  51.350   9.563  1.00  0.00    +0.000 H 
ATOM    149  H51 UNL A   1      14.651  51.636   7.902  1.00  0.00    +0.000 H 
BRANCH    3    2
ATOM      2  S1  UNL A   1      17.310  50.731   7.607  1.00  0.00    +0.000 S 
BRANCH    2    1
ATOM      1  C1  UNL A   1      16.557  49.927   6.165  1.00  0.00    +0.000 C 
ATOM     99  H1  UNL A   1      16.769  50.500   5.286  1.00  0.00    +0.000 H 
ATOM    100  H2  UNL A   1      15.498  49.865   6.303  1.00  0.00    +0.000 H 
ATOM    101  H3  UNL A   1      16.960  48.942   6.054  1.00  0.00    +0.000 H 
ENDBRANCH    2    1
ENDBRANCH    3    2
ENDBRANCH    7    6
BRANCH    9   10
ATOM    105  H7  UNL A   1      12.897  52.081  15.154  1.00  0.00    +0.000 H 
ATOM     10  C9  UNL A   1      12.421  51.156  15.403  1.00  0.00    +0.000 C 
ATOM    106  H8  UNL A   1      12.985  50.556  16.087  1.00  0.00    +0.000 H 
BRANCH   10   11
ATOM     11  C10 UNL A   1      11.095  51.477  16.110  1.00  0.00    +0.000 C 
ATOM    108  H10 UNL A   1      11.587  50.166  17.748  1.00  0.00    +0.000 H 
ATOM     12  C11 UNL A   1      10.932  50.992  17.557  1.00  0.00    +0.000 C 
ATOM    107  H9  UNL A   1      10.410  50.968  15.466  1.00  0.00    +0.000 H 
ATOM     15  C14 UNL A   1      10.886  52.968  16.261  1.00  0.00    +0.000 C 
ATOM    109  H11 UNL A   1       9.933  50.656  17.746  1.00  0.00    +0.000 H 
ATOM     13  C12 UNL A   1      11.298  52.175  18.448  1.00  0.00    +0.000 C 
ATOM     14  C13 UNL A   1      10.796  53.400  17.699  1.00  0.00    +0.000 C 
ATOM     16  O1  UNL A   1      10.774  53.738  15.314  1.00  0.00    +0.000 O 
ATOM    110  H12 UNL A   1      12.357  52.226  18.587  1.00  0.00    +0.000 H 
ATOM    111  H13 UNL A   1      10.865  52.093  19.423  1.00  0.00    +0.000 H 
ATOM    112  H14 UNL A   1      11.419  54.249  17.888  1.00  0.00    +0.000 H 
ATOM    113  H15 UNL A   1       9.812  53.704  17.992  1.00  0.00    +0.000 H 
ENDBRANCH   10   11
ENDBRANCH    9   10
ENDBRANCH   20   19
BRANCH   20   21
ATOM    117  H19 UNL A   1      13.654  46.232  10.541  1.00  0.00    +0.000 H 
ATOM     21  C19 UNL A   1      12.627  46.313  10.831  1.00  0.00    +0.000 C 
ATOM    118  H20 UNL A   1      12.035  45.651  10.236  1.00  0.00    +0.000 H 
ATOM    119  H21 UNL A   1      12.526  46.050  11.864  1.00  0.00    +0.000 H 
ENDBRANCH   20   21
ENDBRANCH   22   20
ENDBRANCH   24   22
ENDBRANCH   25   24
ENDBRANCH   26   25
ENDBRANCH   27   26
ENDBRANCH   28   27
ENDBRANCH   29   28
ENDBRANCH   30   29
ENDBRANCH   31   30
ENDBRANCH   32   31
ENDBRANCH   34   32
ENDBRANCH   38   37
BRANCH   42   43
ATOM     43  C36 UNL A   1      12.111  47.679   5.152  1.00  0.00    +0.000 C 
ATOM     44  C37 UNL A   1      12.624  46.948   6.234  1.00  0.00    +0.000 C 
ATOM     45  F1  UNL A   1      13.845  47.223   6.716  1.00  0.00    +0.000 F 
ATOM     46  C38 UNL A   1      11.898  45.903   6.801  1.00  0.00    +0.000 C 
ATOM     47  F2  UNL A   1      12.428  45.190   7.804  1.00  0.00    +0.000 F 
ATOM     48  C39 UNL A   1      10.635  45.593   6.321  1.00  0.00    +0.000 C 
ATOM     49  F3  UNL A   1       9.935  44.592   6.872  1.00  0.00    +0.000 F 
ATOM     50  C40 UNL A   1      10.100  46.316   5.265  1.00  0.00    +0.000 C 
ATOM     51  F4  UNL A   1       8.875  46.023   4.808  1.00  0.00    +0.000 F 
ATOM     52  C41 UNL A   1      10.834  47.342   4.678  1.00  0.00    +0.000 C 
ATOM     53  F5  UNL A   1      10.296  48.014   3.649  1.00  0.00    +0.000 F 
ENDBRANCH   42   43
BRANCH   59   60
ATOM     65  C50 UNL A   1      17.476  47.333  -2.624  1.00  0.00    +0.000 C 
ATOM     66  F8  UNL A   1      17.950  46.630  -3.661  1.00  0.00    +0.000 F 
ATOM     67  C51 UNL A   1      16.250  47.974  -2.721  1.00  0.00    +0.000 C 
ATOM     68  F9  UNL A   1      15.531  47.875  -3.847  1.00  0.00    +0.000 F 
ATOM     69  C52 UNL A   1      15.766  48.723  -1.652  1.00  0.00    +0.000 C 
ATOM     70  F10 UNL A   1      14.583  49.341  -1.780  1.00  0.00    +0.000 F 
ATOM     60  C47 UNL A   1      16.493  48.824  -0.456  1.00  0.00    +0.000 C 
ATOM     61  C48 UNL A   1      17.722  48.154  -0.372  1.00  0.00    +0.000 C 
ATOM     62  F6  UNL A   1      18.460  48.235   0.745  1.00  0.00    +0.000 F 
ATOM     63  C49 UNL A   1      18.214  47.428  -1.453  1.00  0.00    +0.000 C 
ATOM     64  F7  UNL A   1      19.411  46.831  -1.366  1.00  0.00    +0.000 F 
ENDBRANCH   59   60
BRANCH   74   75
ATOM     75  C56 UNL A   1      17.301  55.427   1.599  1.00  0.00    +0.000 C 
ATOM     76  C57 UNL A   1      16.738  56.364   0.720  1.00  0.00    +0.000 C 
ATOM     77  F11 UNL A   1      15.467  56.222   0.316  1.00  0.00    +0.000 F 
ATOM     78  C58 UNL A   1      17.491  57.426   0.222  1.00  0.00    +0.000 C 
ATOM     79  F12 UNL A   1      16.941  58.283  -0.648  1.00  0.00    +0.000 F 
ATOM     80  C59 UNL A   1      18.811  57.587   0.616  1.00  0.00    +0.000 C 
ATOM     81  F13 UNL A   1      19.533  58.611   0.142  1.00  0.00    +0.000 F 
ATOM     82  C60 UNL A   1      19.383  56.683   1.498  1.00  0.00    +0.000 C 
ATOM     83  F14 UNL A   1      20.654  56.843   1.891  1.00  0.00    +0.000 F 
ATOM     84  C61 UNL A   1      18.639  55.606   1.976  1.00  0.00    +0.000 C 
ATOM     85  F15 UNL A   1      19.220  54.741   2.820  1.00  0.00    +0.000 F 
ENDBRANCH   74   75
TORSDOF 22
ENDMDL
MODEL 5
REMARK VINA RESULT:      -7.5     44.914     51.143
ROOT
ATOM    136  H38 UNL A   1       4.851   9.673  24.430  1.00  0.00    +0.000 H 
ATOM    137  H39 UNL A   1       6.622  10.888  25.909  1.00  0.00    +0.000 H 
ATOM    138  H40 UNL A   1       7.314   6.812  26.135  1.00  0.00    +0.000 H 
ATOM    139  H41 UNL A   1      10.555   1.898  28.601  1.00  0.00    +0.000 H 
ATOM    140  H42 UNL A   1       8.847   0.719  27.136  1.00  0.00    +0.000 H 
ATOM    141  H43 UNL A   1       8.148   4.809  26.866  1.00  0.00    +0.000 H 
ATOM    142  H44 UNL A   1      11.690   7.006  29.677  1.00  0.00    +0.000 H 
ATOM    143  H45 UNL A   1      10.574   9.238  29.105  1.00  0.00    +0.000 H 
ATOM    144  H46 UNL A   1       3.992   4.532  23.152  1.00  0.00    +0.000 H 
ATOM    145  H47 UNL A   1       4.787   2.275  24.065  1.00  0.00    +0.000 H 
ATOM     38  C32 UNL A   1       7.031   2.472  25.810  1.00  0.00    +0.000 C 
ATOM     39  C33 UNL A   1       6.241   3.596  25.199  1.00  0.00    +0.000 C 
ATOM     40  N3  UNL A   1       6.402   4.889  25.330  1.00  0.00    +0.000 N 
ATOM     41  C34 UNL A   1       5.440   5.474  24.518  1.00  0.00    +0.000 C 
ATOM     42  C35 UNL A   1       5.164   6.789  24.347  1.00  0.00    +0.000 C 
ATOM     54  C42 UNL A   1       5.850   7.857  25.027  1.00  0.00    +0.000 C 
ATOM     55  C43 UNL A   1       5.601   9.217  24.972  1.00  0.00    +0.000 C 
ATOM     56  C44 UNL A   1       6.543   9.868  25.776  1.00  0.00    +0.000 C 
ATOM     57  C45 UNL A   1       7.353   8.909  26.364  1.00  0.00    +0.000 C 
ATOM     58  N4  UNL A   1       6.920   7.681  25.892  1.00  0.00    +0.000 N 
ATOM     59  C46 UNL A   1       8.441   9.099  27.289  1.00  0.00    +0.000 C 
ATOM     71  C53 UNL A   1       9.189   8.104  27.824  1.00  0.00    +0.000 C 
ATOM     72  N5  UNL A   1       9.089   6.734  27.627  1.00  0.00    +0.000 N 
ATOM     73  C54 UNL A   1      10.038   6.196  28.352  1.00  0.00    +0.000 C 
ATOM     74  C55 UNL A   1      10.379   4.743  28.541  1.00  0.00    +0.000 C 
ATOM     86  C62 UNL A   1       9.627   3.806  27.934  1.00  0.00    +0.000 C 
ATOM     87  C63 UNL A   1       9.829   2.363  28.033  1.00  0.00    +0.000 C 
ATOM     88  C64 UNL A   1       8.920   1.740  27.266  1.00  0.00    +0.000 C 
ATOM     89  C65 UNL A   1       8.052   2.741  26.646  1.00  0.00    +0.000 C 
ATOM     90  N6  UNL A   1       8.539   3.938  27.107  1.00  0.00    +0.000 N 
ATOM     91  C66 UNL A   1      10.868   7.170  29.074  1.00  0.00    +0.000 C 
ATOM     92  C67 UNL A   1      10.285   8.315  28.748  1.00  0.00    +0.000 C 
ATOM     93  C68 UNL A   1       4.728   4.398  23.863  1.00  0.00    +0.000 C 
ATOM     94  C69 UNL A   1       5.142   3.216  24.298  1.00  0.00    +0.000 C 
ENDROOT
BRANCH   38   37
ATOM     34  C28 UNL A   1       6.239  -1.604  24.737  1.00  0.00    +0.000 C 
ATOM     35  C29 UNL A   1       5.631  -1.056  25.872  1.00  0.00    +0.000 C 
ATOM     36  C30 UNL A   1       5.868   0.278  26.214  1.00  0.00    +0.000 C 
ATOM     37  C31 UNL A   1       6.736   1.065  25.441  1.00  0.00    +0.000 C 
ATOM    134  H36 UNL A   1       5.009  -1.637  26.456  1.00  0.00    +0.000 H 
ATOM    135  H37 UNL A   1       5.402   0.687  27.038  1.00  0.00    +0.000 H 
ATOM    146  H48 UNL A   1       7.975   1.077  23.727  1.00  0.00    +0.000 H 
ATOM    147  H49 UNL A   1       7.427  -1.183  23.043  1.00  0.00    +0.000 H 
ATOM     95  C70 UNL A   1       7.327   0.510  24.295  1.00  0.00    +0.000 C 
ATOM     96  C71 UNL A   1       7.043  -0.803  23.922  1.00  0.00    +0.000 C 
BRANCH   34   32
ATOM     33  O3  UNL A   1       4.898  -3.312  23.861  1.00  0.00    +0.000 O 
ATOM     32  C27 UNL A   1       5.958  -3.017  24.391  1.00  0.00    +0.000 C 
BRANCH   32   31
ATOM    133  H35 UNL A   1       6.866  -4.772  24.052  1.00  0.00    +0.000 H 
ATOM     31  N2  UNL A   1       6.891  -3.993  24.652  1.00  0.00    +0.000 N 
BRANCH   31   30
ATOM    131  H33 UNL A   1       7.889  -3.116  26.232  1.00  0.00    +0.000 H 
ATOM    132  H34 UNL A   1       7.691  -4.867  26.331  1.00  0.00    +0.000 H 
ATOM     30  C26 UNL A   1       7.908  -4.038  25.689  1.00  0.00    +0.000 C 
BRANCH   30   29
ATOM    129  H31 UNL A   1       9.992  -4.346  25.925  1.00  0.00    +0.000 H 
ATOM    130  H32 UNL A   1       9.250  -5.112  24.489  1.00  0.00    +0.000 H 
ATOM     29  C25 UNL A   1       9.306  -4.242  25.110  1.00  0.00    +0.000 C 
BRANCH   29   28
ATOM     28  C24 UNL A   1       9.803  -3.102  24.212  1.00  0.00    +0.000 C 
ATOM    127  H29 UNL A   1       9.467  -3.298  23.216  1.00  0.00    +0.000 H 
ATOM    128  H30 UNL A   1       9.405  -2.203  24.636  1.00  0.00    +0.000 H 
BRANCH   28   27
ATOM     27  C23 UNL A   1      11.324  -2.906  24.167  1.00  0.00    +0.000 C 
ATOM    125  H27 UNL A   1      11.689  -2.911  25.172  1.00  0.00    +0.000 H 
ATOM    126  H28 UNL A   1      11.709  -3.705  23.569  1.00  0.00    +0.000 H 
BRANCH   27   26
ATOM     26  C22 UNL A   1      11.792  -1.610  23.498  1.00  0.00    +0.000 C 
ATOM    123  H25 UNL A   1      12.398  -1.072  24.198  1.00  0.00    +0.000 H 
ATOM    124  H26 UNL A   1      12.330  -1.894  22.618  1.00  0.00    +0.000 H 
BRANCH   26   25
ATOM     25  C21 UNL A   1      10.653  -0.692  23.043  1.00  0.00    +0.000 C 
ATOM    122  H24 UNL A   1      10.816   0.276  23.467  1.00  0.00    +0.000 H 
ATOM    121  H23 UNL A   1       9.723  -1.105  23.373  1.00  0.00    +0.000 H 
BRANCH   25   24
ATOM    120  H22 UNL A   1      10.749  -1.400  21.115  1.00  0.00    +0.000 H 
ATOM     24  N1  UNL A   1      10.619  -0.555  21.603  1.00  0.00    +0.000 N 
BRANCH   24   22
ATOM     22  C20 UNL A   1      10.442   0.530  20.800  1.00  0.00    +0.000 C 
ATOM     23  O2  UNL A   1       9.510   0.450  19.989  1.00  0.00    +0.000 O 
BRANCH   22   20
ATOM    116  H18 UNL A   1      11.599   1.965  19.828  1.00  0.00    +0.000 H 
ATOM     20  C18 UNL A   1      11.317   1.795  20.846  1.00  0.00    +0.000 C 
BRANCH   20   19
ATOM      7  C6  UNL A   1      10.340   4.130  20.358  1.00  0.00    +0.000 C 
ATOM      8  C7  UNL A   1       9.521   5.210  20.755  1.00  0.00    +0.000 C 
ATOM      9  C8  UNL A   1       8.977   5.286  22.042  1.00  0.00    +0.000 C 
ATOM    104  H6  UNL A   1       9.319   5.962  20.078  1.00  0.00    +0.000 H 
ATOM     17  C15 UNL A   1       9.214   4.239  22.928  1.00  0.00    +0.000 C 
ATOM     18  C16 UNL A   1       9.991   3.150  22.540  1.00  0.00    +0.000 C 
ATOM     19  C17 UNL A   1      10.536   3.046  21.249  1.00  0.00    +0.000 C 
ATOM    115  H17 UNL A   1      10.171   2.397  23.221  1.00  0.00    +0.000 H 
ATOM    114  H16 UNL A   1       8.812   4.270  23.878  1.00  0.00    +0.000 H 
BRANCH    7    6
ATOM     97  C72 UNL A   1      11.972   5.385  18.891  1.00  0.00    +0.000 C 
ATOM     98  C73 UNL A   1      12.656   5.498  17.671  1.00  0.00    +0.000 C 
ATOM      3  C2  UNL A   1      12.528   4.523  16.669  1.00  0.00    +0.000 C 
ATOM      4  C3  UNL A   1      11.699   3.429  16.915  1.00  0.00    +0.000 C 
ATOM      5  C4  UNL A   1      11.010   3.322  18.125  1.00  0.00    +0.000 C 
ATOM    102  H4  UNL A   1      11.593   2.694  16.198  1.00  0.00    +0.000 H 
ATOM      6  C5  UNL A   1      11.132   4.296  19.129  1.00  0.00    +0.000 C 
ATOM    103  H5  UNL A   1      10.398   2.508  18.284  1.00  0.00    +0.000 H 
ATOM    148  H50 UNL A   1      12.092   6.110  19.617  1.00  0.00    +0.000 H 
ATOM    149  H51 UNL A   1      13.264   6.315  17.506  1.00  0.00    +0.000 H 
BRANCH    3    2
ATOM      2  S1  UNL A   1      13.422   4.779  15.141  1.00  0.00    +0.000 S 
BRANCH    2    1
ATOM      1  C1  UNL A   1      14.997   5.492  15.694  1.00  0.00    +0.000 C 
ATOM     99  H1  UNL A   1      15.579   5.774  14.842  1.00  0.00    +0.000 H 
ATOM    100  H2  UNL A   1      15.534   4.769  16.270  1.00  0.00    +0.000 H 
ATOM    101  H3  UNL A   1      14.805   6.357  16.296  1.00  0.00    +0.000 H 
ENDBRANCH    2    1
ENDBRANCH    3    2
ENDBRANCH    7    6
BRANCH    9   10
ATOM    105  H7  UNL A   1       8.475   6.649  23.562  1.00  0.00    +0.000 H 
ATOM     10  C9  UNL A   1       8.272   6.531  22.518  1.00  0.00    +0.000 C 
ATOM    106  H8  UNL A   1       7.234   6.388  22.300  1.00  0.00    +0.000 H 
BRANCH   10   11
ATOM     11  C10 UNL A   1       8.685   7.826  21.804  1.00  0.00    +0.000 C 
ATOM    108  H10 UNL A   1       7.160   7.553  20.307  1.00  0.00    +0.000 H 
ATOM     12  C11 UNL A   1       7.755   8.351  20.700  1.00  0.00    +0.000 C 
ATOM    107  H9  UNL A   1       9.622   7.521  21.389  1.00  0.00    +0.000 H 
ATOM     15  C14 UNL A   1       8.729   9.003  22.753  1.00  0.00    +0.000 C 
ATOM    109  H11 UNL A   1       8.313   8.765  19.885  1.00  0.00    +0.000 H 
ATOM     13  C12 UNL A   1       6.866   9.402  21.356  1.00  0.00    +0.000 C 
ATOM     14  C13 UNL A   1       7.758  10.090  22.378  1.00  0.00    +0.000 C 
ATOM     16  O1  UNL A   1       9.490   9.077  23.710  1.00  0.00    +0.000 O 
ATOM    110  H12 UNL A   1       6.030   8.939  21.838  1.00  0.00    +0.000 H 
ATOM    111  H13 UNL A   1       6.465  10.091  20.643  1.00  0.00    +0.000 H 
ATOM    112  H14 UNL A   1       7.194  10.415  23.227  1.00  0.00    +0.000 H 
ATOM    113  H15 UNL A   1       8.232  10.973  22.002  1.00  0.00    +0.000 H 
ENDBRANCH   10   11
ENDBRANCH    9   10
ENDBRANCH   20   19
BRANCH   20   21
ATOM    117  H19 UNL A   1      13.075   0.661  21.289  1.00  0.00    +0.000 H 
ATOM     21  C19 UNL A   1      12.680   1.629  21.518  1.00  0.00    +0.000 C 
ATOM    118  H20 UNL A   1      12.571   1.729  22.577  1.00  0.00    +0.000 H 
ATOM    119  H21 UNL A   1      13.349   2.382  21.155  1.00  0.00    +0.000 H 
ENDBRANCH   20   21
ENDBRANCH   22   20
ENDBRANCH   24   22
ENDBRANCH   25   24
ENDBRANCH   26   25
ENDBRANCH   27   26
ENDBRANCH   28   27
ENDBRANCH   29   28
ENDBRANCH   30   29
ENDBRANCH   31   30
ENDBRANCH   32   31
ENDBRANCH   34   32
ENDBRANCH   38   37
BRANCH   42   43
ATOM     43  C36 UNL A   1       4.066   7.150  23.390  1.00  0.00    +0.000 C 
ATOM     44  C37 UNL A   1       2.866   7.725  23.832  1.00  0.00    +0.000 C 
ATOM     45  F1  UNL A   1       2.653   7.920  25.141  1.00  0.00    +0.000 F 
ATOM     46  C38 UNL A   1       1.860   8.067  22.931  1.00  0.00    +0.000 C 
ATOM     47  F2  UNL A   1       0.704   8.573  23.380  1.00  0.00    +0.000 F 
ATOM     48  C39 UNL A   1       2.050   7.872  21.570  1.00  0.00    +0.000 C 
ATOM     49  F3  UNL A   1       1.084   8.208  20.704  1.00  0.00    +0.000 F 
ATOM     50  C40 UNL A   1       3.237   7.324  21.110  1.00  0.00    +0.000 C 
ATOM     51  F4  UNL A   1       3.426   7.146  19.795  1.00  0.00    +0.000 F 
ATOM     52  C41 UNL A   1       4.233   6.955  22.010  1.00  0.00    +0.000 C 
ATOM     53  F5  UNL A   1       5.365   6.414  21.535  1.00  0.00    +0.000 F 
ENDBRANCH   42   43
BRANCH   59   60
ATOM     65  C50 UNL A   1       9.425  13.109  28.518  1.00  0.00    +0.000 C 
ATOM     66  F8  UNL A   1       9.734  14.356  28.897  1.00  0.00    +0.000 F 
ATOM     67  C51 UNL A   1      10.099  12.517  27.460  1.00  0.00    +0.000 C 
ATOM     68  F9  UNL A   1      11.072  13.187  26.829  1.00  0.00    +0.000 F 
ATOM     69  C52 UNL A   1       9.765  11.229  27.052  1.00  0.00    +0.000 C 
ATOM     70  F10 UNL A   1      10.425  10.687  26.018  1.00  0.00    +0.000 F 
ATOM     60  C47 UNL A   1       8.762  10.501  27.711  1.00  0.00    +0.000 C 
ATOM     61  C48 UNL A   1       8.105  11.112  28.789  1.00  0.00    +0.000 C 
ATOM     62  F6  UNL A   1       7.129  10.461  29.441  1.00  0.00    +0.000 F 
ATOM     63  C49 UNL A   1       8.425  12.410  29.178  1.00  0.00    +0.000 C 
ATOM     64  F7  UNL A   1       7.755  12.989  30.184  1.00  0.00    +0.000 F 
ENDBRANCH   59   60
BRANCH   74   75
ATOM     75  C56 UNL A   1      11.512   4.335  29.409  1.00  0.00    +0.000 C 
ATOM     76  C57 UNL A   1      12.702   3.843  28.852  1.00  0.00    +0.000 C 
ATOM     77  F11 UNL A   1      12.814   3.718  27.521  1.00  0.00    +0.000 F 
ATOM     78  C58 UNL A   1      13.763   3.443  29.661  1.00  0.00    +0.000 C 
ATOM     79  F12 UNL A   1      14.873   2.939  29.105  1.00  0.00    +0.000 F 
ATOM     80  C59 UNL A   1      13.666   3.553  31.040  1.00  0.00    +0.000 C 
ATOM     81  F13 UNL A   1      14.688   3.173  31.817  1.00  0.00    +0.000 F 
ATOM     82  C60 UNL A   1      12.506   4.052  31.612  1.00  0.00    +0.000 C 
ATOM     83  F14 UNL A   1      12.413   4.171  32.943  1.00  0.00    +0.000 F 
ATOM     84  C61 UNL A   1      11.434   4.428  30.805  1.00  0.00    +0.000 C 
ATOM     85  F15 UNL A   1      10.320   4.898  31.385  1.00  0.00    +0.000 F 
ENDBRANCH   74   75
TORSDOF 22
ENDMDL
MODEL 6
REMARK VINA RESULT:      -7.5     64.790     70.595
ROOT
ATOM    136  H38 UNL A   1      30.427 -16.291  34.285  1.00  0.00    +0.000 H 
ATOM    137  H39 UNL A   1      29.275 -15.794  36.571  1.00  0.00    +0.000 H 
ATOM    138  H40 UNL A   1      27.143 -13.865  33.592  1.00  0.00    +0.000 H 
ATOM    139  H41 UNL A   1      22.406  -9.959  31.847  1.00  0.00    +0.000 H 
ATOM    140  H42 UNL A   1      23.514 -10.470  29.619  1.00  0.00    +0.000 H 
ATOM    141  H43 UNL A   1      25.656 -12.443  32.587  1.00  0.00    +0.000 H 
ATOM    142  H44 UNL A   1      23.262 -11.472  36.899  1.00  0.00    +0.000 H 
ATOM    143  H45 UNL A   1      25.099 -12.814  38.071  1.00  0.00    +0.000 H 
ATOM    144  H46 UNL A   1      29.297 -14.983  29.206  1.00  0.00    +0.000 H 
ATOM    145  H47 UNL A   1      27.759 -13.281  28.066  1.00  0.00    +0.000 H 
ATOM     38  C32 UNL A   1      25.802 -12.161  29.808  1.00  0.00    +0.000 C 
ATOM     39  C33 UNL A   1      26.929 -13.088  30.168  1.00  0.00    +0.000 C 
ATOM     40  N3  UNL A   1      27.258 -13.577  31.338  1.00  0.00    +0.000 N 
ATOM     41  C34 UNL A   1      28.341 -14.414  31.105  1.00  0.00    +0.000 C 
ATOM     42  C35 UNL A   1      29.075 -15.115  32.004  1.00  0.00    +0.000 C 
ATOM     54  C42 UNL A   1      28.851 -15.095  33.426  1.00  0.00    +0.000 C 
ATOM     55  C43 UNL A   1      29.580 -15.719  34.423  1.00  0.00    +0.000 C 
ATOM     56  C44 UNL A   1      28.969 -15.441  35.652  1.00  0.00    +0.000 C 
ATOM     57  C45 UNL A   1      27.884 -14.610  35.421  1.00  0.00    +0.000 C 
ATOM     58  N4  UNL A   1      27.820 -14.411  34.052  1.00  0.00    +0.000 N 
ATOM     59  C46 UNL A   1      26.972 -14.040  36.380  1.00  0.00    +0.000 C 
ATOM     71  C53 UNL A   1      25.929 -13.231  36.075  1.00  0.00    +0.000 C 
ATOM     72  N5  UNL A   1      25.513 -12.775  34.832  1.00  0.00    +0.000 N 
ATOM     73  C54 UNL A   1      24.456 -12.033  35.056  1.00  0.00    +0.000 C 
ATOM     74  C55 UNL A   1      23.612 -11.264  34.078  1.00  0.00    +0.000 C 
ATOM     86  C62 UNL A   1      23.947 -11.267  32.774  1.00  0.00    +0.000 C 
ATOM     87  C63 UNL A   1      23.233 -10.562  31.713  1.00  0.00    +0.000 C 
ATOM     88  C64 UNL A   1      23.824 -10.824  30.537  1.00  0.00    +0.000 C 
ATOM     89  C65 UNL A   1      24.979 -11.694  30.766  1.00  0.00    +0.000 C 
ATOM     90  N6  UNL A   1      24.980 -11.897  32.123  1.00  0.00    +0.000 N 
ATOM     91  C66 UNL A   1      24.066 -11.956  36.471  1.00  0.00    +0.000 C 
ATOM     92  C67 UNL A   1      25.017 -12.673  37.053  1.00  0.00    +0.000 C 
ATOM     93  C68 UNL A   1      28.587 -14.403  29.680  1.00  0.00    +0.000 C 
ATOM     94  C69 UNL A   1      27.782 -13.550  29.063  1.00  0.00    +0.000 C 
ENDROOT
BRANCH   38   37
ATOM     34  C28 UNL A   1      25.125 -11.130  25.701  1.00  0.00    +0.000 C 
ATOM     35  C29 UNL A   1      24.682 -12.365  26.186  1.00  0.00    +0.000 C 
ATOM     36  C30 UNL A   1      24.880 -12.697  27.529  1.00  0.00    +0.000 C 
ATOM     37  C31 UNL A   1      25.548 -11.810  28.388  1.00  0.00    +0.000 C 
ATOM    134  H36 UNL A   1      24.210 -13.029  25.553  1.00  0.00    +0.000 H 
ATOM    135  H37 UNL A   1      24.533 -13.598  27.891  1.00  0.00    +0.000 H 
ATOM    146  H48 UNL A   1      26.474  -9.913  28.515  1.00  0.00    +0.000 H 
ATOM    147  H49 UNL A   1      25.977  -9.272  26.231  1.00  0.00    +0.000 H 
ATOM     95  C70 UNL A   1      25.973 -10.567  27.894  1.00  0.00    +0.000 C 
ATOM     96  C71 UNL A   1      25.722 -10.212  26.569  1.00  0.00    +0.000 C 
BRANCH   34   32
ATOM     33  O3  UNL A   1      23.818 -10.323  23.933  1.00  0.00    +0.000 O 
ATOM     32  C27 UNL A   1      24.889 -10.798  24.276  1.00  0.00    +0.000 C 
BRANCH   32   31
ATOM    133  H35 UNL A   1      25.564 -11.340  22.467  1.00  0.00    +0.000 H 
ATOM     31  N2  UNL A   1      25.875 -11.013  23.341  1.00  0.00    +0.000 N 
BRANCH   31   30
ATOM    131  H33 UNL A   1      27.679 -11.470  24.235  1.00  0.00    +0.000 H 
ATOM    132  H34 UNL A   1      27.757 -11.067  22.519  1.00  0.00    +0.000 H 
ATOM     30  C26 UNL A   1      27.311 -10.827  23.462  1.00  0.00    +0.000 C 
BRANCH   30   29
ATOM    129  H31 UNL A   1      26.773  -8.807  23.812  1.00  0.00    +0.000 H 
ATOM    130  H32 UNL A   1      28.166  -9.415  24.754  1.00  0.00    +0.000 H 
ATOM     29  C25 UNL A   1      27.675  -9.384  23.804  1.00  0.00    +0.000 C 
BRANCH   29   28
ATOM     28  C24 UNL A   1      28.656  -8.719  22.832  1.00  0.00    +0.000 C 
ATOM    127  H29 UNL A   1      28.305  -8.896  21.838  1.00  0.00    +0.000 H 
ATOM    128  H30 UNL A   1      28.681  -7.684  23.105  1.00  0.00    +0.000 H 
BRANCH   28   27
ATOM     27  C23 UNL A   1      30.108  -9.208  22.914  1.00  0.00    +0.000 C 
ATOM    125  H27 UNL A   1      30.104 -10.188  23.344  1.00  0.00    +0.000 H 
ATOM    126  H28 UNL A   1      30.487  -9.182  21.914  1.00  0.00    +0.000 H 
BRANCH   27   26
ATOM     26  C22 UNL A   1      31.044  -8.328  23.748  1.00  0.00    +0.000 C 
ATOM    123  H25 UNL A   1      31.160  -7.392  23.244  1.00  0.00    +0.000 H 
ATOM    124  H26 UNL A   1      30.592  -8.226  24.712  1.00  0.00    +0.000 H 
BRANCH   26   25
ATOM     25  C21 UNL A   1      32.435  -8.930  23.973  1.00  0.00    +0.000 C 
ATOM    122  H24 UNL A   1      32.946  -8.327  24.693  1.00  0.00    +0.000 H 
ATOM    121  H23 UNL A   1      32.960  -8.945  23.041  1.00  0.00    +0.000 H 
BRANCH   25   24
ATOM    120  H22 UNL A   1      31.516 -10.745  24.274  1.00  0.00    +0.000 H 
ATOM     24  N1  UNL A   1      32.357 -10.279  24.488  1.00  0.00    +0.000 N 
BRANCH   24   22
ATOM     22  C20 UNL A   1      33.234 -11.024  25.216  1.00  0.00    +0.000 C 
ATOM     23  O2  UNL A   1      33.485 -12.149  24.767  1.00  0.00    +0.000 O 
BRANCH   22   20
ATOM    116  H18 UNL A   1      34.423  -9.662  26.253  1.00  0.00    +0.000 H 
ATOM     20  C18 UNL A   1      33.894 -10.552  26.524  1.00  0.00    +0.000 C 
BRANCH   20   19
ATOM      7  C6  UNL A   1      32.125 -11.020  28.340  1.00  0.00    +0.000 C 
ATOM      8  C7  UNL A   1      31.283 -10.539  29.366  1.00  0.00    +0.000 C 
ATOM      9  C8  UNL A   1      31.098  -9.169  29.584  1.00  0.00    +0.000 C 
ATOM    104  H6  UNL A   1      30.792 -11.216  29.972  1.00  0.00    +0.000 H 
ATOM     17  C15 UNL A   1      31.807  -8.268  28.796  1.00  0.00    +0.000 C 
ATOM     18  C16 UNL A   1      32.668  -8.728  27.802  1.00  0.00    +0.000 C 
ATOM     19  C17 UNL A   1      32.880 -10.098  27.574  1.00  0.00    +0.000 C 
ATOM    115  H17 UNL A   1      33.166  -8.041  27.216  1.00  0.00    +0.000 H 
ATOM    114  H16 UNL A   1      31.694  -7.254  28.948  1.00  0.00    +0.000 H 
BRANCH    7    6
ATOM     97  C72 UNL A   1      32.877 -13.433  28.399  1.00  0.00    +0.000 C 
ATOM     98  C73 UNL A   1      32.720 -14.756  27.957  1.00  0.00    +0.000 C 
ATOM      3  C2  UNL A   1      31.676 -15.117  27.091  1.00  0.00    +0.000 C 
ATOM      4  C3  UNL A   1      30.791 -14.124  26.673  1.00  0.00    +0.000 C 
ATOM      5  C4  UNL A   1      30.954 -12.806  27.103  1.00  0.00    +0.000 C 
ATOM    102  H4  UNL A   1      30.011 -14.364  26.042  1.00  0.00    +0.000 H 
ATOM      6  C5  UNL A   1      31.998 -12.438  27.968  1.00  0.00    +0.000 C 
ATOM    103  H5  UNL A   1      30.292 -12.085  26.778  1.00  0.00    +0.000 H 
ATOM    148  H50 UNL A   1      33.645 -13.195  29.046  1.00  0.00    +0.000 H 
ATOM    149  H51 UNL A   1      33.385 -15.478  28.276  1.00  0.00    +0.000 H 
BRANCH    3    2
ATOM      2  S1  UNL A   1      31.583 -16.826  26.568  1.00  0.00    +0.000 S 
BRANCH    2    1
ATOM      1  C1  UNL A   1      33.320 -17.353  26.556  1.00  0.00    +0.000 C 
ATOM     99  H1  UNL A   1      33.920 -16.616  27.046  1.00  0.00    +0.000 H 
ATOM    100  H2  UNL A   1      33.651 -17.467  25.545  1.00  0.00    +0.000 H 
ATOM    101  H3  UNL A   1      33.412 -18.288  27.069  1.00  0.00    +0.000 H 
ENDBRANCH    2    1
ENDBRANCH    3    2
ENDBRANCH    7    6
BRANCH    9   10
ATOM    105  H7  UNL A   1      29.914  -7.621  30.371  1.00  0.00    +0.000 H 
ATOM     10  C9  UNL A   1      30.051  -8.667  30.547  1.00  0.00    +0.000 C 
ATOM    106  H8  UNL A   1      30.417  -8.890  31.528  1.00  0.00    +0.000 H 
BRANCH   10   11
ATOM     11  C10 UNL A   1      28.682  -9.353  30.435  1.00  0.00    +0.000 C 
ATOM    108  H10 UNL A   1      28.946 -10.317  32.343  1.00  0.00    +0.000 H 
ATOM     12  C11 UNL A   1      28.141 -10.058  31.687  1.00  0.00    +0.000 C 
ATOM    107  H9  UNL A   1      28.891 -10.066  29.666  1.00  0.00    +0.000 H 
ATOM     15  C14 UNL A   1      27.578  -8.361  30.141  1.00  0.00    +0.000 C 
ATOM    109  H11 UNL A   1      27.631 -10.965  31.435  1.00  0.00    +0.000 H 
ATOM     13  C12 UNL A   1      27.204  -9.064  32.365  1.00  0.00    +0.000 C 
ATOM     14  C13 UNL A   1      26.535  -8.313  31.224  1.00  0.00    +0.000 C 
ATOM     16  O1  UNL A   1      27.525  -7.687  29.119  1.00  0.00    +0.000 O 
ATOM    110  H12 UNL A   1      27.757  -8.390  32.986  1.00  0.00    +0.000 H 
ATOM    111  H13 UNL A   1      26.493  -9.550  32.999  1.00  0.00    +0.000 H 
ATOM    112  H14 UNL A   1      26.313  -7.304  31.503  1.00  0.00    +0.000 H 
ATOM    113  H15 UNL A   1      25.596  -8.736  30.930  1.00  0.00    +0.000 H 
ENDBRANCH   10   11
ENDBRANCH    9   10
ENDBRANCH   20   19
BRANCH   20   21
ATOM    117  H19 UNL A   1      34.660 -12.058  27.835  1.00  0.00    +0.000 H 
ATOM     21  C19 UNL A   1      35.028 -11.434  27.047  1.00  0.00    +0.000 C 
ATOM    118  H20 UNL A   1      35.818 -10.817  27.419  1.00  0.00    +0.000 H 
ATOM    119  H21 UNL A   1      35.399 -12.045  26.250  1.00  0.00    +0.000 H 
ENDBRANCH   20   21
ENDBRANCH   22   20
ENDBRANCH   24   22
ENDBRANCH   25   24
ENDBRANCH   26   25
ENDBRANCH   27   26
ENDBRANCH   28   27
ENDBRANCH   29   28
ENDBRANCH   30   29
ENDBRANCH   31   30
ENDBRANCH   32   31
ENDBRANCH   34   32
ENDBRANCH   38   37
BRANCH   42   43
ATOM     43  C36 UNL A   1      30.196 -15.960  31.475  1.00  0.00    +0.000 C 
ATOM     44  C37 UNL A   1      29.961 -17.221  30.908  1.00  0.00    +0.000 C 
ATOM     45  F1  UNL A   1      28.718 -17.724  30.873  1.00  0.00    +0.000 F 
ATOM     46  C38 UNL A   1      31.010 -17.990  30.409  1.00  0.00    +0.000 C 
ATOM     47  F2  UNL A   1      30.767 -19.211  29.913  1.00  0.00    +0.000 F 
ATOM     48  C39 UNL A   1      32.307 -17.497  30.435  1.00  0.00    +0.000 C 
ATOM     49  F3  UNL A   1      33.314 -18.235  29.949  1.00  0.00    +0.000 F 
ATOM     50  C40 UNL A   1      32.559 -16.244  30.973  1.00  0.00    +0.000 C 
ATOM     51  F4  UNL A   1      33.810 -15.764  30.989  1.00  0.00    +0.000 F 
ATOM     52  C41 UNL A   1      31.517 -15.486  31.498  1.00  0.00    +0.000 C 
ATOM     53  F5  UNL A   1      31.794 -14.283  32.024  1.00  0.00    +0.000 F 
ENDBRANCH   42   43
BRANCH   59   60
ATOM     65  C50 UNL A   1      27.693 -14.938  40.531  1.00  0.00    +0.000 C 
ATOM     66  F8  UNL A   1      27.920 -15.214  41.822  1.00  0.00    +0.000 F 
ATOM     67  C51 UNL A   1      28.471 -13.996  39.874  1.00  0.00    +0.000 C 
ATOM     68  F9  UNL A   1      29.463 -13.375  40.528  1.00  0.00    +0.000 F 
ATOM     69  C52 UNL A   1      28.223 -13.693  38.539  1.00  0.00    +0.000 C 
ATOM     70  F10 UNL A   1      28.984 -12.769  37.933  1.00  0.00    +0.000 F 
ATOM     60  C47 UNL A   1      27.202 -14.345  37.830  1.00  0.00    +0.000 C 
ATOM     61  C48 UNL A   1      26.438 -15.306  38.507  1.00  0.00    +0.000 C 
ATOM     62  F6  UNL A   1      25.441 -15.944  37.876  1.00  0.00    +0.000 F 
ATOM     63  C49 UNL A   1      26.674 -15.588  39.851  1.00  0.00    +0.000 C 
ATOM     64  F7  UNL A   1      25.904 -16.479  40.490  1.00  0.00    +0.000 F 
ENDBRANCH   59   60
BRANCH   74   75
ATOM     75  C56 UNL A   1      22.437 -10.482  34.537  1.00  0.00    +0.000 C 
ATOM     76  C57 UNL A   1      22.598  -9.198  35.077  1.00  0.00    +0.000 C 
ATOM     77  F11 UNL A   1      23.827  -8.676  35.205  1.00  0.00    +0.000 F 
ATOM     78  C58 UNL A   1      21.502  -8.463  35.525  1.00  0.00    +0.000 C 
ATOM     79  F12 UNL A   1      21.687  -7.256  36.074  1.00  0.00    +0.000 F 
ATOM     80  C59 UNL A   1      20.222  -8.986  35.414  1.00  0.00    +0.000 C 
ATOM     81  F13 UNL A   1      19.168  -8.278  35.839  1.00  0.00    +0.000 F 
ATOM     82  C60 UNL A   1      20.038 -10.248  34.866  1.00  0.00    +0.000 C 
ATOM     83  F14 UNL A   1      18.802 -10.751  34.747  1.00  0.00    +0.000 F 
ATOM     84  C61 UNL A   1      21.135 -10.993  34.443  1.00  0.00    +0.000 C 
ATOM     85  F15 UNL A   1      20.929 -12.214  33.927  1.00  0.00    +0.000 F 
ENDBRANCH   74   75
TORSDOF 22
ENDMDL
MODEL 7
REMARK VINA RESULT:      -7.5      2.173      7.807
ROOT
ATOM    136  H38 UNL A   1      18.864  53.368  -1.311  1.00  0.00    +0.000 H 
ATOM    137  H39 UNL A   1      18.380  50.855  -1.809  1.00  0.00    +0.000 H 
ATOM    138  H40 UNL A   1      15.735  52.137   1.107  1.00  0.00    +0.000 H 
ATOM    139  H41 UNL A   1      11.066  50.854   5.265  1.00  0.00    +0.000 H 
ATOM    140  H42 UNL A   1      11.521  53.310   5.727  1.00  0.00    +0.000 H 
ATOM    141  H43 UNL A   1      14.169  52.058   2.777  1.00  0.00    +0.000 H 
ATOM    142  H44 UNL A   1      13.046  47.244   1.860  1.00  0.00    +0.000 H 
ATOM    143  H45 UNL A   1      14.998  47.239   0.205  1.00  0.00    +0.000 H 
ATOM    144  H46 UNL A   1      16.595  57.009   1.912  1.00  0.00    +0.000 H 
ATOM    145  H47 UNL A   1      14.971  56.924   3.891  1.00  0.00    +0.000 H 
ATOM     38  C32 UNL A   1      13.626  54.427   4.162  1.00  0.00    +0.000 C 
ATOM     39  C33 UNL A   1      14.723  54.779   3.196  1.00  0.00    +0.000 C 
ATOM     40  N3  UNL A   1      15.296  54.034   2.285  1.00  0.00    +0.000 N 
ATOM     41  C34 UNL A   1      16.207  54.859   1.640  1.00  0.00    +0.000 C 
ATOM     42  C35 UNL A   1      17.082  54.544   0.654  1.00  0.00    +0.000 C 
ATOM     54  C42 UNL A   1      17.231  53.228   0.091  1.00  0.00    +0.000 C 
ATOM     55  C43 UNL A   1      18.133  52.793  -0.864  1.00  0.00    +0.000 C 
ATOM     56  C44 UNL A   1      17.882  51.441  -1.122  1.00  0.00    +0.000 C 
ATOM     57  C45 UNL A   1      16.850  51.024  -0.297  1.00  0.00    +0.000 C 
ATOM     58  N4  UNL A   1      16.456  52.131   0.438  1.00  0.00    +0.000 N 
ATOM     59  C46 UNL A   1      16.265  49.712  -0.185  1.00  0.00    +0.000 C 
ATOM     71  C53 UNL A   1      15.253  49.380   0.652  1.00  0.00    +0.000 C 
ATOM     72  N5  UNL A   1      14.575  50.179   1.561  1.00  0.00    +0.000 N 
ATOM     73  C54 UNL A   1      13.679  49.406   2.122  1.00  0.00    +0.000 C 
ATOM     74  C55 UNL A   1      12.683  49.735   3.200  1.00  0.00    +0.000 C 
ATOM     86  C62 UNL A   1      12.673  50.971   3.733  1.00  0.00    +0.000 C 
ATOM     87  C63 UNL A   1      11.776  51.432   4.789  1.00  0.00    +0.000 C 
ATOM     88  C64 UNL A   1      12.023  52.727   5.039  1.00  0.00    +0.000 C 
ATOM     89  C65 UNL A   1      13.118  53.180   4.180  1.00  0.00    +0.000 C 
ATOM     90  N6  UNL A   1      13.448  52.068   3.446  1.00  0.00    +0.000 N 
ATOM     91  C66 UNL A   1      13.670  48.028   1.611  1.00  0.00    +0.000 C 
ATOM     92  C67 UNL A   1      14.672  48.056   0.744  1.00  0.00    +0.000 C 
ATOM     93  C68 UNL A   1      16.082  56.173   2.232  1.00  0.00    +0.000 C 
ATOM     94  C69 UNL A   1      15.223  56.162   3.242  1.00  0.00    +0.000 C 
ENDROOT
BRANCH   38   37
ATOM     34  C28 UNL A   1      11.905  57.412   6.715  1.00  0.00    +0.000 C 
ATOM     35  C29 UNL A   1      12.967  56.629   7.182  1.00  0.00    +0.000 C 
ATOM     36  C30 UNL A   1      13.546  55.671   6.347  1.00  0.00    +0.000 C 
ATOM     37  C31 UNL A   1      13.050  55.467   5.050  1.00  0.00    +0.000 C 
ATOM    134  H36 UNL A   1      13.321  56.761   8.143  1.00  0.00    +0.000 H 
ATOM    135  H37 UNL A   1      14.343  55.110   6.686  1.00  0.00    +0.000 H 
ATOM    146  H48 UNL A   1      11.617  56.119   3.638  1.00  0.00    +0.000 H 
ATOM    147  H49 UNL A   1      10.730  57.895   5.028  1.00  0.00    +0.000 H 
ATOM     95  C70 UNL A   1      11.996  56.269   4.586  1.00  0.00    +0.000 C 
ATOM     96  C71 UNL A   1      11.458  57.266   5.399  1.00  0.00    +0.000 C 
BRANCH   34   32
ATOM     33  O3  UNL A   1      10.296  59.012   7.294  1.00  0.00    +0.000 O 
ATOM     32  C27 UNL A   1      11.320  58.431   7.617  1.00  0.00    +0.000 C 
BRANCH   32   31
ATOM    133  H35 UNL A   1      12.903  58.717   8.813  1.00  0.00    +0.000 H 
ATOM     31  N2  UNL A   1      11.920  58.716   8.822  1.00  0.00    +0.000 N 
BRANCH   31   30
ATOM    131  H33 UNL A   1      12.074  59.062  10.851  1.00  0.00    +0.000 H 
ATOM    132  H34 UNL A   1      10.795  59.950  10.019  1.00  0.00    +0.000 H 
ATOM     30  C26 UNL A   1      11.307  59.014  10.106  1.00  0.00    +0.000 C 
BRANCH   30   29
ATOM    129  H31 UNL A   1       9.346  58.438  10.669  1.00  0.00    +0.000 H 
ATOM    130  H32 UNL A   1      10.268  57.235   9.719  1.00  0.00    +0.000 H 
ATOM     29  C25 UNL A   1      10.287  57.952  10.513  1.00  0.00    +0.000 C 
BRANCH   29   28
ATOM     28  C24 UNL A   1      10.640  57.177  11.788  1.00  0.00    +0.000 C 
ATOM    127  H29 UNL A   1      11.637  57.442  12.069  1.00  0.00    +0.000 H 
ATOM    128  H30 UNL A   1       9.898  57.451  12.510  1.00  0.00    +0.000 H 
BRANCH   28   27
ATOM     27  C23 UNL A   1      10.571  55.649  11.677  1.00  0.00    +0.000 C 
ATOM    125  H27 UNL A   1      11.495  55.248  12.038  1.00  0.00    +0.000 H 
ATOM    126  H28 UNL A   1       9.721  55.346  12.253  1.00  0.00    +0.000 H 
BRANCH   27   26
ATOM     26  C22 UNL A   1      10.340  55.109  10.262  1.00  0.00    +0.000 C 
ATOM    123  H25 UNL A   1       9.351  54.704  10.216  1.00  0.00    +0.000 H 
ATOM    124  H26 UNL A   1      10.482  55.931   9.592  1.00  0.00    +0.000 H 
BRANCH   26   25
ATOM     25  C21 UNL A   1      11.328  54.018   9.839  1.00  0.00    +0.000 C 
ATOM    122  H24 UNL A   1      11.933  54.405   9.047  1.00  0.00    +0.000 H 
ATOM    121  H23 UNL A   1      10.778  53.158   9.517  1.00  0.00    +0.000 H 
BRANCH   25   24
ATOM    120  H22 UNL A   1      12.612  54.393  11.400  1.00  0.00    +0.000 H 
ATOM     24  N1  UNL A   1      12.201  53.634  10.927  1.00  0.00    +0.000 N 
BRANCH   24   22
ATOM     22  C20 UNL A   1      12.559  52.414  11.415  1.00  0.00    +0.000 C 
ATOM     23  O2  UNL A   1      11.676  51.801  12.028  1.00  0.00    +0.000 O 
BRANCH   22   20
ATOM    116  H18 UNL A   1      13.872  50.818  11.684  1.00  0.00    +0.000 H 
ATOM     20  C18 UNL A   1      13.958  51.794  11.253  1.00  0.00    +0.000 C 
BRANCH   20   19
ATOM      7  C6  UNL A   1      13.988  50.344   9.122  1.00  0.00    +0.000 C 
ATOM      8  C7  UNL A   1      14.273  50.217   7.745  1.00  0.00    +0.000 C 
ATOM      9  C8  UNL A   1      14.977  51.205   7.046  1.00  0.00    +0.000 C 
ATOM    104  H6  UNL A   1      13.954  49.375   7.241  1.00  0.00    +0.000 H 
ATOM     17  C15 UNL A   1      15.356  52.359   7.723  1.00  0.00    +0.000 C 
ATOM     18  C16 UNL A   1      15.052  52.514   9.074  1.00  0.00    +0.000 C 
ATOM     19  C17 UNL A   1      14.335  51.542   9.793  1.00  0.00    +0.000 C 
ATOM    115  H17 UNL A   1      15.362  53.368   9.562  1.00  0.00    +0.000 H 
ATOM    114  H16 UNL A   1      15.865  53.104   7.224  1.00  0.00    +0.000 H 
BRANCH    7    6
ATOM     97  C72 UNL A   1      14.439  48.183  10.354  1.00  0.00    +0.000 C 
ATOM     98  C73 UNL A   1      13.947  47.027  10.981  1.00  0.00    +0.000 C 
ATOM      3  C2  UNL A   1      12.568  46.802  11.118  1.00  0.00    +0.000 C 
ATOM      4  C3  UNL A   1      11.689  47.760  10.615  1.00  0.00    +0.000 C 
ATOM      5  C4  UNL A   1      12.178  48.904   9.982  1.00  0.00    +0.000 C 
ATOM    102  H4  UNL A   1      10.671  47.622  10.710  1.00  0.00    +0.000 H 
ATOM      6  C5  UNL A   1      13.556  49.134   9.838  1.00  0.00    +0.000 C 
ATOM    103  H5  UNL A   1      11.510  49.598   9.611  1.00  0.00    +0.000 H 
ATOM    148  H50 UNL A   1      15.457  48.331  10.276  1.00  0.00    +0.000 H 
ATOM    149  H51 UNL A   1      14.612  46.328  11.347  1.00  0.00    +0.000 H 
BRANCH    3    2
ATOM      2  S1  UNL A   1      12.049  45.284  11.909  1.00  0.00    +0.000 S 
BRANCH    2    1
ATOM      1  C1  UNL A   1      11.749  45.789  13.626  1.00  0.00    +0.000 C 
ATOM     99  H1  UNL A   1      12.684  45.909  14.131  1.00  0.00    +0.000 H 
ATOM    100  H2  UNL A   1      11.170  45.039  14.123  1.00  0.00    +0.000 H 
ATOM    101  H3  UNL A   1      11.216  46.717  13.637  1.00  0.00    +0.000 H 
ENDBRANCH    2    1
ENDBRANCH    3    2
ENDBRANCH    7    6
BRANCH    9   10
ATOM    105  H7  UNL A   1      15.639  51.927   5.186  1.00  0.00    +0.000 H 
ATOM     10  C9  UNL A   1      15.446  50.973   5.631  1.00  0.00    +0.000 C 
ATOM    106  H8  UNL A   1      14.666  50.426   5.144  1.00  0.00    +0.000 H 
BRANCH   10   11
ATOM     11  C10 UNL A   1      16.716  50.120   5.498  1.00  0.00    +0.000 C 
ATOM    108  H10 UNL A   1      15.682  48.370   6.211  1.00  0.00    +0.000 H 
ATOM     12  C11 UNL A   1      16.564  48.600   5.650  1.00  0.00    +0.000 C 
ATOM    107  H9  UNL A   1      17.296  50.520   6.302  1.00  0.00    +0.000 H 
ATOM     15  C14 UNL A   1      17.326  50.231   4.118  1.00  0.00    +0.000 C 
ATOM    109  H11 UNL A   1      17.396  48.175   6.173  1.00  0.00    +0.000 H 
ATOM     13  C12 UNL A   1      16.452  48.039   4.236  1.00  0.00    +0.000 C 
ATOM     14  C13 UNL A   1      17.369  48.913   3.393  1.00  0.00    +0.000 C 
ATOM     16  O1  UNL A   1      17.763  51.276   3.649  1.00  0.00    +0.000 O 
ATOM    110  H12 UNL A   1      15.444  48.103   3.885  1.00  0.00    +0.000 H 
ATOM    111  H13 UNL A   1      16.727  47.006   4.190  1.00  0.00    +0.000 H 
ATOM    112  H14 UNL A   1      16.999  49.009   2.393  1.00  0.00    +0.000 H 
ATOM    113  H15 UNL A   1      18.357  48.516   3.289  1.00  0.00    +0.000 H 
ENDBRANCH   10   11
ENDBRANCH    9   10
ENDBRANCH   20   19
BRANCH   20   21
ATOM    117  H19 UNL A   1      16.010  52.034  11.807  1.00  0.00    +0.000 H 
ATOM     21  C19 UNL A   1      15.058  52.413  12.117  1.00  0.00    +0.000 C 
ATOM    118  H20 UNL A   1      14.890  52.162  13.142  1.00  0.00    +0.000 H 
ATOM    119  H21 UNL A   1      15.042  53.477  12.003  1.00  0.00    +0.000 H 
ENDBRANCH   20   21
ENDBRANCH   22   20
ENDBRANCH   24   22
ENDBRANCH   25   24
ENDBRANCH   26   25
ENDBRANCH   27   26
ENDBRANCH   28   27
ENDBRANCH   29   28
ENDBRANCH   30   29
ENDBRANCH   31   30
ENDBRANCH   32   31
ENDBRANCH   34   32
ENDBRANCH   38   37
BRANCH   42   43
ATOM     43  C36 UNL A   1      17.954  55.644   0.123  1.00  0.00    +0.000 C 
ATOM     44  C37 UNL A   1      19.198  55.937   0.701  1.00  0.00    +0.000 C 
ATOM     45  F1  UNL A   1      19.615  55.265   1.784  1.00  0.00    +0.000 F 
ATOM     46  C38 UNL A   1      20.004  56.953   0.190  1.00  0.00    +0.000 C 
ATOM     47  F2  UNL A   1      21.168  57.246   0.786  1.00  0.00    +0.000 F 
ATOM     48  C39 UNL A   1      19.597  57.668  -0.927  1.00  0.00    +0.000 C 
ATOM     49  F3  UNL A   1      20.376  58.640  -1.421  1.00  0.00    +0.000 F 
ATOM     50  C40 UNL A   1      18.380  57.380  -1.526  1.00  0.00    +0.000 C 
ATOM     51  F4  UNL A   1      17.991  58.064  -2.611  1.00  0.00    +0.000 F 
ATOM     52  C41 UNL A   1      17.560  56.386  -1.001  1.00  0.00    +0.000 C 
ATOM     53  F5  UNL A   1      16.382  56.140  -1.594  1.00  0.00    +0.000 F 
ENDBRANCH   42   43
BRANCH   59   60
ATOM     65  C50 UNL A   1      17.831  46.542  -2.647  1.00  0.00    +0.000 C 
ATOM     66  F8  UNL A   1      18.314  45.557  -3.416  1.00  0.00    +0.000 F 
ATOM     67  C51 UNL A   1      16.707  47.249  -3.049  1.00  0.00    +0.000 C 
ATOM     68  F9  UNL A   1      16.095  46.934  -4.198  1.00  0.00    +0.000 F 
ATOM     69  C52 UNL A   1      16.216  48.286  -2.262  1.00  0.00    +0.000 C 
ATOM     70  F10 UNL A   1      15.135  48.960  -2.682  1.00  0.00    +0.000 F 
ATOM     60  C47 UNL A   1      16.829  48.620  -1.045  1.00  0.00    +0.000 C 
ATOM     61  C48 UNL A   1      17.954  47.882  -0.649  1.00  0.00    +0.000 C 
ATOM     62  F6  UNL A   1      18.584  48.175   0.499  1.00  0.00    +0.000 F 
ATOM     63  C49 UNL A   1      18.457  46.862  -1.452  1.00  0.00    +0.000 C 
ATOM     64  F7  UNL A   1      19.558  46.198  -1.074  1.00  0.00    +0.000 F 
ENDBRANCH   59   60
BRANCH   74   75
ATOM     75  C56 UNL A   1      11.736  48.707   3.701  1.00  0.00    +0.000 C 
ATOM     76  C57 UNL A   1      12.036  47.952   4.844  1.00  0.00    +0.000 C 
ATOM     77  F11 UNL A   1      13.200  48.140   5.482  1.00  0.00    +0.000 F 
ATOM     78  C58 UNL A   1      11.159  46.975   5.311  1.00  0.00    +0.000 C 
ATOM     79  F12 UNL A   1      11.489  46.239   6.381  1.00  0.00    +0.000 F 
ATOM     80  C59 UNL A   1       9.954  46.753   4.661  1.00  0.00    +0.000 C 
ATOM     81  F13 UNL A   1       9.110  45.818   5.113  1.00  0.00    +0.000 F 
ATOM     82  C60 UNL A   1       9.629  47.500   3.538  1.00  0.00    +0.000 C 
ATOM     83  F14 UNL A   1       8.461  47.298   2.916  1.00  0.00    +0.000 F 
ATOM     84  C61 UNL A   1      10.516  48.460   3.056  1.00  0.00    +0.000 C 
ATOM     85  F15 UNL A   1      10.181  49.161   1.962  1.00  0.00    +0.000 F 
ENDBRANCH   74   75
TORSDOF 22
ENDMDL
MODEL 8
REMARK VINA RESULT:      -7.5     43.172     46.336
ROOT
ATOM    136  H38 UNL A   1      19.368  37.196  48.198  1.00  0.00    +0.000 H 
ATOM    137  H39 UNL A   1      18.519  39.325  49.441  1.00  0.00    +0.000 H 
ATOM    138  H40 UNL A   1      22.341  40.075  48.040  1.00  0.00    +0.000 H 
ATOM    139  H41 UNL A   1      27.406  43.937  47.631  1.00  0.00    +0.000 H 
ATOM    140  H42 UNL A   1      28.219  41.871  46.396  1.00  0.00    +0.000 H 
ATOM    141  H43 UNL A   1      24.370  41.101  47.766  1.00  0.00    +0.000 H 
ATOM    142  H44 UNL A   1      22.842  45.317  50.040  1.00  0.00    +0.000 H 
ATOM    143  H45 UNL A   1      20.682  44.069  50.615  1.00  0.00    +0.000 H 
ATOM    144  H46 UNL A   1      23.866  36.017  45.521  1.00  0.00    +0.000 H 
ATOM    145  H47 UNL A   1      26.196  37.063  45.333  1.00  0.00    +0.000 H 
ATOM     38  C32 UNL A   1      26.338  39.730  46.328  1.00  0.00    +0.000 C 
ATOM     39  C33 UNL A   1      25.170  38.786  46.393  1.00  0.00    +0.000 C 
ATOM     40  N3  UNL A   1      23.982  38.972  46.912  1.00  0.00    +0.000 N 
ATOM     41  C34 UNL A   1      23.272  37.806  46.659  1.00  0.00    +0.000 C 
ATOM     42  C35 UNL A   1      22.012  37.485  47.039  1.00  0.00    +0.000 C 
ATOM     54  C42 UNL A   1      21.159  38.338  47.823  1.00  0.00    +0.000 C 
ATOM     55  C43 UNL A   1      19.891  38.078  48.314  1.00  0.00    +0.000 C 
ATOM     56  C44 UNL A   1      19.441  39.216  48.992  1.00  0.00    +0.000 C 
ATOM     57  C45 UNL A   1      20.444  40.170  48.959  1.00  0.00    +0.000 C 
ATOM     58  N4  UNL A   1      21.490  39.621  48.234  1.00  0.00    +0.000 N 
ATOM     59  C46 UNL A   1      20.451  41.486  49.544  1.00  0.00    +0.000 C 
ATOM     71  C53 UNL A   1      21.478  42.367  49.468  1.00  0.00    +0.000 C 
ATOM     72  N5  UNL A   1      22.710  42.219  48.846  1.00  0.00    +0.000 N 
ATOM     73  C54 UNL A   1      23.349  43.345  49.040  1.00  0.00    +0.000 C 
ATOM     74  C55 UNL A   1      24.736  43.736  48.611  1.00  0.00    +0.000 C 
ATOM     86  C62 UNL A   1      25.500  42.841  47.957  1.00  0.00    +0.000 C 
ATOM     87  C63 UNL A   1      26.863  43.071  47.489  1.00  0.00    +0.000 C 
ATOM     88  C64 UNL A   1      27.296  41.975  46.845  1.00  0.00    +0.000 C 
ATOM     89  C65 UNL A   1      26.248  40.954  46.881  1.00  0.00    +0.000 C 
ATOM     90  N6  UNL A   1      25.223  41.552  47.569  1.00  0.00    +0.000 N 
ATOM     91  C66 UNL A   1      22.580  44.350  49.789  1.00  0.00    +0.000 C 
ATOM     92  C67 UNL A   1      21.463  43.690  50.057  1.00  0.00    +0.000 C 
ATOM     93  C68 UNL A   1      24.145  36.935  45.903  1.00  0.00    +0.000 C 
ATOM     94  C69 UNL A   1      25.351  37.467  45.766  1.00  0.00    +0.000 C 
ENDROOT
BRANCH   38   37
ATOM     34  C28 UNL A   1      29.871  38.563  44.195  1.00  0.00    +0.000 C 
ATOM     35  C29 UNL A   1      29.338  39.843  44.005  1.00  0.00    +0.000 C 
ATOM     36  C30 UNL A   1      28.200  40.237  44.714  1.00  0.00    +0.000 C 
ATOM     37  C31 UNL A   1      27.570  39.344  45.595  1.00  0.00    +0.000 C 
ATOM    134  H36 UNL A   1      29.786  40.495  43.342  1.00  0.00    +0.000 H 
ATOM    135  H37 UNL A   1      27.822  41.188  44.589  1.00  0.00    +0.000 H 
ATOM    146  H48 UNL A   1      27.661  37.402  46.428  1.00  0.00    +0.000 H 
ATOM    147  H49 UNL A   1      29.730  36.786  45.327  1.00  0.00    +0.000 H 
ATOM     95  C70 UNL A   1      28.123  38.069  45.791  1.00  0.00    +0.000 C 
ATOM     96  C71 UNL A   1      29.292  37.699  45.128  1.00  0.00    +0.000 C 
BRANCH   34   32
ATOM     33  O3  UNL A   1      31.049  37.234  42.669  1.00  0.00    +0.000 O 
ATOM     32  C27 UNL A   1      31.087  38.179  43.441  1.00  0.00    +0.000 C 
BRANCH   32   31
ATOM    133  H35 UNL A   1      32.638  39.260  42.772  1.00  0.00    +0.000 H 
ATOM     31  N2  UNL A   1      32.254  38.890  43.599  1.00  0.00    +0.000 N 
BRANCH   31   30
ATOM    131  H33 UNL A   1      32.523  38.680  45.635  1.00  0.00    +0.000 H 
ATOM    132  H34 UNL A   1      34.001  38.813  44.678  1.00  0.00    +0.000 H 
ATOM     30  C26 UNL A   1      33.001  39.172  44.813  1.00  0.00    +0.000 C 
BRANCH   30   29
ATOM    129  H31 UNL A   1      34.050  40.889  45.480  1.00  0.00    +0.000 H 
ATOM    130  H32 UNL A   1      32.848  41.166  44.185  1.00  0.00    +0.000 H 
ATOM     29  C25 UNL A   1      33.072  40.669  45.106  1.00  0.00    +0.000 C 
BRANCH   29   28
ATOM     28  C24 UNL A   1      32.047  41.174  46.129  1.00  0.00    +0.000 C 
ATOM    127  H29 UNL A   1      32.407  42.099  46.526  1.00  0.00    +0.000 H 
ATOM    128  H30 UNL A   1      31.123  41.261  45.597  1.00  0.00    +0.000 H 
BRANCH   28   27
ATOM     27  C23 UNL A   1      31.765  40.233  47.307  1.00  0.00    +0.000 C 
ATOM    125  H27 UNL A   1      31.981  39.233  46.993  1.00  0.00    +0.000 H 
ATOM    126  H28 UNL A   1      32.383  40.571  48.113  1.00  0.00    +0.000 H 
BRANCH   27   26
ATOM     26  C22 UNL A   1      30.326  40.264  47.833  1.00  0.00    +0.000 C 
ATOM    123  H25 UNL A   1      30.212  41.133  48.446  1.00  0.00    +0.000 H 
ATOM    124  H26 UNL A   1      29.686  40.275  46.976  1.00  0.00    +0.000 H 
BRANCH   26   25
ATOM     25  C21 UNL A   1      29.935  39.036  48.661  1.00  0.00    +0.000 C 
ATOM    122  H24 UNL A   1      30.799  38.708  49.199  1.00  0.00    +0.000 H 
ATOM    121  H23 UNL A   1      29.580  38.272  48.000  1.00  0.00    +0.000 H 
BRANCH   25   24
ATOM    120  H22 UNL A   1      29.047  40.178  50.122  1.00  0.00    +0.000 H 
ATOM     24  N1  UNL A   1      28.896  39.345  49.619  1.00  0.00    +0.000 N 
BRANCH   24   22
ATOM     22  C20 UNL A   1      27.748  38.694  49.954  1.00  0.00    +0.000 C 
ATOM     23  O2  UNL A   1      26.702  39.335  49.793  1.00  0.00    +0.000 O 
BRANCH   22   20
ATOM    116  H18 UNL A   1      26.891  37.271  51.213  1.00  0.00    +0.000 H 
ATOM     20  C18 UNL A   1      27.696  37.259  50.508  1.00  0.00    +0.000 C 
BRANCH   20   19
ATOM      7  C6  UNL A   1      25.932  35.830  49.288  1.00  0.00    +0.000 C 
ATOM      8  C7  UNL A   1      25.600  34.953  48.232  1.00  0.00    +0.000 C 
ATOM      9  C8  UNL A   1      26.581  34.389  47.409  1.00  0.00    +0.000 C 
ATOM    104  H6  UNL A   1      24.608  34.723  48.063  1.00  0.00    +0.000 H 
ATOM     17  C15 UNL A   1      27.909  34.748  47.613  1.00  0.00    +0.000 C 
ATOM     18  C16 UNL A   1      28.249  35.639  48.629  1.00  0.00    +0.000 C 
ATOM     19  C17 UNL A   1      27.280  36.228  49.459  1.00  0.00    +0.000 C 
ATOM    115  H17 UNL A   1      29.243  35.873  48.776  1.00  0.00    +0.000 H 
ATOM    114  H16 UNL A   1      28.647  34.352  47.010  1.00  0.00    +0.000 H 
BRANCH    7    6
ATOM     97  C72 UNL A   1      24.649  35.275  51.395  1.00  0.00    +0.000 C 
ATOM     98  C73 UNL A   1      23.605  35.574  52.285  1.00  0.00    +0.000 C 
ATOM      3  C2  UNL A   1      22.796  36.707  52.107  1.00  0.00    +0.000 C 
ATOM      4  C3  UNL A   1      23.053  37.537  51.016  1.00  0.00    +0.000 C 
ATOM      5  C4  UNL A   1      24.083  37.235  50.124  1.00  0.00    +0.000 C 
ATOM    102  H4  UNL A   1      22.477  38.380  50.867  1.00  0.00    +0.000 H 
ATOM      6  C5  UNL A   1      24.894  36.101  50.296  1.00  0.00    +0.000 C 
ATOM    103  H5  UNL A   1      24.252  37.859  49.321  1.00  0.00    +0.000 H 
ATOM    148  H50 UNL A   1      25.238  34.443  51.554  1.00  0.00    +0.000 H 
ATOM    149  H51 UNL A   1      23.429  34.948  53.086  1.00  0.00    +0.000 H 
BRANCH    3    2
ATOM      2  S1  UNL A   1      21.477  36.979  53.284  1.00  0.00    +0.000 S 
BRANCH    2    1
ATOM      1  C1  UNL A   1      21.659  35.594  54.443  1.00  0.00    +0.000 C 
ATOM     99  H1  UNL A   1      21.107  34.752  54.082  1.00  0.00    +0.000 H 
ATOM    100  H2  UNL A   1      21.286  35.880  55.403  1.00  0.00    +0.000 H 
ATOM    101  H3  UNL A   1      22.694  35.332  54.526  1.00  0.00    +0.000 H 
ENDBRANCH    2    1
ENDBRANCH    3    2
ENDBRANCH    7    6
BRANCH    9   10
ATOM    105  H7  UNL A   1      27.151  32.932  46.004  1.00  0.00    +0.000 H 
ATOM     10  C9  UNL A   1      26.237  33.306  46.416  1.00  0.00    +0.000 C 
ATOM    106  H8  UNL A   1      25.596  33.761  45.689  1.00  0.00    +0.000 H 
BRANCH   10   11
ATOM     11  C10 UNL A   1      25.454  32.118  46.994  1.00  0.00    +0.000 C 
ATOM    108  H10 UNL A   1      23.587  32.939  46.300  1.00  0.00    +0.000 H 
ATOM     12  C11 UNL A   1      23.976  31.988  46.599  1.00  0.00    +0.000 C 
ATOM    107  H9  UNL A   1      25.544  32.324  48.040  1.00  0.00    +0.000 H 
ATOM     15  C14 UNL A   1      26.015  30.794  46.525  1.00  0.00    +0.000 C 
ATOM    109  H11 UNL A   1      23.381  31.644  47.420  1.00  0.00    +0.000 H 
ATOM     13  C12 UNL A   1      23.932  31.008  45.431  1.00  0.00    +0.000 C 
ATOM     14  C13 UNL A   1      25.021  29.989  45.732  1.00  0.00    +0.000 C 
ATOM     16  O1  UNL A   1      27.147  30.404  46.786  1.00  0.00    +0.000 O 
ATOM    110  H12 UNL A   1      24.132  31.512  44.509  1.00  0.00    +0.000 H 
ATOM    111  H13 UNL A   1      22.970  30.550  45.327  1.00  0.00    +0.000 H 
ATOM    112  H14 UNL A   1      25.459  29.615  44.830  1.00  0.00    +0.000 H 
ATOM    113  H15 UNL A   1      24.663  29.124  46.250  1.00  0.00    +0.000 H 
ENDBRANCH   10   11
ENDBRANCH    9   10
ENDBRANCH   20   19
BRANCH   20   21
ATOM    117  H19 UNL A   1      29.174  35.854  51.155  1.00  0.00    +0.000 H 
ATOM     21  C19 UNL A   1      28.873  36.853  51.396  1.00  0.00    +0.000 C 
ATOM    118  H20 UNL A   1      28.577  36.898  52.423  1.00  0.00    +0.000 H 
ATOM    119  H21 UNL A   1      29.691  37.522  51.231  1.00  0.00    +0.000 H 
ENDBRANCH   20   21
ENDBRANCH   22   20
ENDBRANCH   24   22
ENDBRANCH   25   24
ENDBRANCH   26   25
ENDBRANCH   27   26
ENDBRANCH   28   27
ENDBRANCH   29   28
ENDBRANCH   30   29
ENDBRANCH   31   30
ENDBRANCH   32   31
ENDBRANCH   34   32
ENDBRANCH   38   37
BRANCH   42   43
ATOM     43  C36 UNL A   1      21.480  36.146  46.617  1.00  0.00    +0.000 C 
ATOM     44  C37 UNL A   1      20.970  35.933  45.328  1.00  0.00    +0.000 C 
ATOM     45  F1  UNL A   1      20.902  36.946  44.453  1.00  0.00    +0.000 F 
ATOM     46  C38 UNL A   1      20.492  34.681  44.945  1.00  0.00    +0.000 C 
ATOM     47  F2  UNL A   1      19.968  34.512  43.724  1.00  0.00    +0.000 F 
ATOM     48  C39 UNL A   1      20.546  33.615  45.831  1.00  0.00    +0.000 C 
ATOM     49  F3  UNL A   1      20.091  32.411  45.459  1.00  0.00    +0.000 F 
ATOM     50  C40 UNL A   1      21.064  33.800  47.103  1.00  0.00    +0.000 C 
ATOM     51  F4  UNL A   1      21.127  32.768  47.956  1.00  0.00    +0.000 F 
ATOM     52  C41 UNL A   1      21.517  35.056  47.499  1.00  0.00    +0.000 C 
ATOM     53  F5  UNL A   1      22.001  35.206  48.741  1.00  0.00    +0.000 F 
ENDBRANCH   42   43
BRANCH   59   60
ATOM     65  C50 UNL A   1      16.984  42.775  51.753  1.00  0.00    +0.000 C 
ATOM     66  F8  UNL A   1      15.904  43.178  52.436  1.00  0.00    +0.000 F 
ATOM     67  C51 UNL A   1      17.127  43.116  50.416  1.00  0.00    +0.000 C 
ATOM     68  F9  UNL A   1      16.193  43.863  49.813  1.00  0.00    +0.000 F 
ATOM     69  C52 UNL A   1      18.238  42.680  49.699  1.00  0.00    +0.000 C 
ATOM     70  F10 UNL A   1      18.343  43.014  48.405  1.00  0.00    +0.000 F 
ATOM     60  C47 UNL A   1      19.238  41.913  50.316  1.00  0.00    +0.000 C 
ATOM     61  C48 UNL A   1      19.083  41.594  51.673  1.00  0.00    +0.000 C 
ATOM     62  F6  UNL A   1      20.005  40.850  52.302  1.00  0.00    +0.000 F 
ATOM     63  C49 UNL A   1      17.957  42.011  52.379  1.00  0.00    +0.000 C 
ATOM     64  F7  UNL A   1      17.808  41.659  53.664  1.00  0.00    +0.000 F 
ENDBRANCH   59   60
BRANCH   74   75
ATOM     75  C56 UNL A   1      25.280  45.081  48.926  1.00  0.00    +0.000 C 
ATOM     76  C57 UNL A   1      25.165  46.135  48.008  1.00  0.00    +0.000 C 
ATOM     77  F11 UNL A   1      24.578  45.925  46.821  1.00  0.00    +0.000 F 
ATOM     78  C58 UNL A   1      25.687  47.395  48.291  1.00  0.00    +0.000 C 
ATOM     79  F12 UNL A   1      25.599  48.373  47.380  1.00  0.00    +0.000 F 
ATOM     80  C59 UNL A   1      26.309  47.633  49.508  1.00  0.00    +0.000 C 
ATOM     81  F13 UNL A   1      26.806  48.846  49.781  1.00  0.00    +0.000 F 
ATOM     82  C60 UNL A   1      26.419  46.610  50.438  1.00  0.00    +0.000 C 
ATOM     83  F14 UNL A   1      27.008  46.840  51.619  1.00  0.00    +0.000 F 
ATOM     84  C61 UNL A   1      25.920  45.343  50.146  1.00  0.00    +0.000 C 
ATOM     85  F15 UNL A   1      26.050  44.369  51.059  1.00  0.00    +0.000 F 
ENDBRANCH   74   75
TORSDOF 22
ENDMDL
MODEL 9
REMARK VINA RESULT:      -7.4     64.686     70.140
ROOT
ATOM    136  H38 UNL A   1      22.791  -9.910  29.968  1.00  0.00    +0.000 H 
ATOM    137  H39 UNL A   1      22.044  -9.898  32.466  1.00  0.00    +0.000 H 
ATOM    138  H40 UNL A   1      25.615 -11.975  32.186  1.00  0.00    +0.000 H 
ATOM    139  H41 UNL A   1      30.195 -15.465  34.940  1.00  0.00    +0.000 H 
ATOM    140  H42 UNL A   1      30.935 -15.450  32.510  1.00  0.00    +0.000 H 
ATOM    141  H43 UNL A   1      27.365 -13.333  32.766  1.00  0.00    +0.000 H 
ATOM    142  H44 UNL A   1      26.114 -13.313  37.635  1.00  0.00    +0.000 H 
ATOM    143  H45 UNL A   1      23.994 -12.052  36.951  1.00  0.00    +0.000 H 
ATOM    144  H46 UNL A   1      27.092 -11.831  27.398  1.00  0.00    +0.000 H 
ATOM    145  H47 UNL A   1      28.968 -13.478  27.973  1.00  0.00    +0.000 H 
ATOM     38  C32 UNL A   1      29.170 -14.057  30.756  1.00  0.00    +0.000 C 
ATOM     39  C33 UNL A   1      28.118 -13.237  30.062  1.00  0.00    +0.000 C 
ATOM     40  N3  UNL A   1      27.081 -12.620  30.569  1.00  0.00    +0.000 N 
ATOM     41  C34 UNL A   1      26.468 -11.973  29.504  1.00  0.00    +0.000 C 
ATOM     42  C35 UNL A   1      25.327 -11.242  29.503  1.00  0.00    +0.000 C 
ATOM     54  C42 UNL A   1      24.509 -11.013  30.665  1.00  0.00    +0.000 C 
ATOM     55  C43 UNL A   1      23.302 -10.342  30.754  1.00  0.00    +0.000 C 
ATOM     56  C44 UNL A   1      22.894 -10.347  32.092  1.00  0.00    +0.000 C 
ATOM     57  C45 UNL A   1      23.827 -11.057  32.830  1.00  0.00    +0.000 C 
ATOM     58  N4  UNL A   1      24.815 -11.455  31.944  1.00  0.00    +0.000 N 
ATOM     59  C46 UNL A   1      23.820 -11.351  34.240  1.00  0.00    +0.000 C 
ATOM     71  C53 UNL A   1      24.775 -12.058  34.893  1.00  0.00    +0.000 C 
ATOM     72  N5  UNL A   1      25.926 -12.643  34.386  1.00  0.00    +0.000 N 
ATOM     73  C54 UNL A   1      26.527 -13.200  35.408  1.00  0.00    +0.000 C 
ATOM     74  C55 UNL A   1      27.802 -13.996  35.441  1.00  0.00    +0.000 C 
ATOM     86  C62 UNL A   1      28.458 -14.237  34.290  1.00  0.00    +0.000 C 
ATOM     87  C63 UNL A   1      29.696 -15.000  34.164  1.00  0.00    +0.000 C 
ATOM     88  C64 UNL A   1      30.082 -15.001  32.878  1.00  0.00    +0.000 C 
ATOM     89  C65 UNL A   1      29.100 -14.261  32.085  1.00  0.00    +0.000 C 
ATOM     90  N6  UNL A   1      28.167 -13.853  33.004  1.00  0.00    +0.000 N 
ATOM     91  C66 UNL A   1      25.833 -13.008  36.690  1.00  0.00    +0.000 C 
ATOM     92  C67 UNL A   1      24.753 -12.337  36.314  1.00  0.00    +0.000 C 
ATOM     93  C68 UNL A   1      27.272 -12.236  28.331  1.00  0.00    +0.000 C 
ATOM     94  C69 UNL A   1      28.269 -13.064  28.609  1.00  0.00    +0.000 C 
ENDROOT
BRANCH   38   37
ATOM     34  C28 UNL A   1      32.552 -15.574  28.598  1.00  0.00    +0.000 C 
ATOM     35  C29 UNL A   1      31.380 -16.335  28.673  1.00  0.00    +0.000 C 
ATOM     36  C30 UNL A   1      30.268 -15.836  29.355  1.00  0.00    +0.000 C 
ATOM     37  C31 UNL A   1      30.328 -14.587  29.992  1.00  0.00    +0.000 C 
ATOM    134  H36 UNL A   1      31.338 -17.263  28.224  1.00  0.00    +0.000 H 
ATOM    135  H37 UNL A   1      29.397 -16.389  29.390  1.00  0.00    +0.000 H 
ATOM    146  H48 UNL A   1      31.561 -12.910  30.371  1.00  0.00    +0.000 H 
ATOM    147  H49 UNL A   1      33.426 -13.703  29.043  1.00  0.00    +0.000 H 
ATOM     95  C70 UNL A   1      31.503 -13.825  29.897  1.00  0.00    +0.000 C 
ATOM     96  C71 UNL A   1      32.591 -14.297  29.165  1.00  0.00    +0.000 C 
BRANCH   34   32
ATOM     33  O3  UNL A   1      34.309 -17.091  28.292  1.00  0.00    +0.000 O 
ATOM     32  C27 UNL A   1      33.711 -16.121  27.855  1.00  0.00    +0.000 C 
BRANCH   32   31
ATOM    133  H35 UNL A   1      34.758 -16.068  26.146  1.00  0.00    +0.000 H 
ATOM     31  N2  UNL A   1      34.107 -15.548  26.669  1.00  0.00    +0.000 N 
BRANCH   31   30
ATOM    131  H33 UNL A   1      33.018 -14.478  25.280  1.00  0.00    +0.000 H 
ATOM    132  H34 UNL A   1      33.243 -13.692  26.845  1.00  0.00    +0.000 H 
ATOM     30  C26 UNL A   1      33.703 -14.283  26.079  1.00  0.00    +0.000 C 
BRANCH   30   29
ATOM    129  H31 UNL A   1      35.755 -14.136  25.567  1.00  0.00    +0.000 H 
ATOM    130  H32 UNL A   1      34.628 -13.206  24.537  1.00  0.00    +0.000 H 
ATOM     29  C25 UNL A   1      34.894 -13.500  25.530  1.00  0.00    +0.000 C 
BRANCH   29   28
ATOM     28  C24 UNL A   1      35.222 -12.210  26.290  1.00  0.00    +0.000 C 
ATOM    127  H29 UNL A   1      35.722 -12.480  27.197  1.00  0.00    +0.000 H 
ATOM    128  H30 UNL A   1      35.821 -11.624  25.624  1.00  0.00    +0.000 H 
BRANCH   28   27
ATOM     27  C23 UNL A   1      34.021 -11.330  26.658  1.00  0.00    +0.000 C 
ATOM    125  H27 UNL A   1      33.172 -11.683  26.109  1.00  0.00    +0.000 H 
ATOM    126  H28 UNL A   1      33.907 -11.410  27.719  1.00  0.00    +0.000 H 
BRANCH   27   26
ATOM     26  C22 UNL A   1      34.192  -9.838  26.359  1.00  0.00    +0.000 C 
ATOM    123  H25 UNL A   1      33.411  -9.304  26.858  1.00  0.00    +0.000 H 
ATOM    124  H26 UNL A   1      35.167  -9.564  26.706  1.00  0.00    +0.000 H 
BRANCH   26   25
ATOM     25  C21 UNL A   1      34.140  -9.487  24.869  1.00  0.00    +0.000 C 
ATOM    122  H24 UNL A   1      34.496 -10.330  24.315  1.00  0.00    +0.000 H 
ATOM    121  H23 UNL A   1      34.751  -8.626  24.694  1.00  0.00    +0.000 H 
BRANCH   25   24
ATOM    120  H22 UNL A   1      32.453  -8.320  24.724  1.00  0.00    +0.000 H 
ATOM     24  N1  UNL A   1      32.790  -9.199  24.434  1.00  0.00    +0.000 N 
BRANCH   24   22
ATOM     22  C20 UNL A   1      31.902  -9.920  23.697  1.00  0.00    +0.000 C 
ATOM     23  O2  UNL A   1      31.397  -9.328  22.734  1.00  0.00    +0.000 O 
BRANCH   22   20
ATOM    116  H18 UNL A   1      31.868 -11.554  24.990  1.00  0.00    +0.000 H 
ATOM     20  C18 UNL A   1      31.506 -11.376  23.999  1.00  0.00    +0.000 C 
BRANCH   20   19
ATOM      7  C6  UNL A   1      29.195 -10.850  25.014  1.00  0.00    +0.000 C 
ATOM      8  C7  UNL A   1      27.792 -11.004  24.981  1.00  0.00    +0.000 C 
ATOM      9  C8  UNL A   1      27.173 -11.928  24.131  1.00  0.00    +0.000 C 
ATOM    104  H6  UNL A   1      27.207 -10.420  25.599  1.00  0.00    +0.000 H 
ATOM     17  C15 UNL A   1      27.968 -12.672  23.265  1.00  0.00    +0.000 C 
ATOM     18  C16 UNL A   1      29.351 -12.506  23.261  1.00  0.00    +0.000 C 
ATOM     19  C17 UNL A   1      29.993 -11.576  24.096  1.00  0.00    +0.000 C 
ATOM    115  H17 UNL A   1      29.922 -13.085  22.626  1.00  0.00    +0.000 H 
ATOM    114  H16 UNL A   1      27.531 -13.350  22.622  1.00  0.00    +0.000 H 
BRANCH    7    6
ATOM     97  C72 UNL A   1      30.475 -10.733  27.191  1.00  0.00    +0.000 C 
ATOM     98  C73 UNL A   1      30.948  -9.973  28.272  1.00  0.00    +0.000 C 
ATOM      3  C2  UNL A   1      30.742  -8.587  28.336  1.00  0.00    +0.000 C 
ATOM      4  C3  UNL A   1      30.050  -7.974  27.292  1.00  0.00    +0.000 C 
ATOM      5  C4  UNL A   1      29.569  -8.730  26.222  1.00  0.00    +0.000 C 
ATOM    102  H4  UNL A   1      29.891  -6.954  27.310  1.00  0.00    +0.000 H 
ATOM      6  C5  UNL A   1      29.770 -10.119  26.154  1.00  0.00    +0.000 C 
ATOM    103  H5  UNL A   1      29.054  -8.258  25.463  1.00  0.00    +0.000 H 
ATOM    148  H50 UNL A   1      30.650 -11.750  27.162  1.00  0.00    +0.000 H 
ATOM    149  H51 UNL A   1      31.457 -10.444  29.037  1.00  0.00    +0.000 H 
BRANCH    3    2
ATOM      2  S1  UNL A   1      31.363  -7.719  29.771  1.00  0.00    +0.000 S 
BRANCH    2    1
ATOM      1  C1  UNL A   1      33.053  -7.266  29.286  1.00  0.00    +0.000 C 
ATOM     99  H1  UNL A   1      33.750  -7.722  29.956  1.00  0.00    +0.000 H 
ATOM    100  H2  UNL A   1      33.163  -6.203  29.325  1.00  0.00    +0.000 H 
ATOM    101  H3  UNL A   1      33.241  -7.608  28.289  1.00  0.00    +0.000 H 
ENDBRANCH    2    1
ENDBRANCH    3    2
ENDBRANCH    7    6
BRANCH    9   10
ATOM    105  H7  UNL A   1      25.216 -11.839  23.369  1.00  0.00    +0.000 H 
ATOM     10  C9  UNL A   1      25.698 -12.224  24.243  1.00  0.00    +0.000 C 
ATOM    106  H8  UNL A   1      25.369 -11.761  25.149  1.00  0.00    +0.000 H 
BRANCH   10   11
ATOM     11  C10 UNL A   1      25.341 -13.712  24.368  1.00  0.00    +0.000 C 
ATOM    108  H10 UNL A   1      26.810 -13.991  25.919  1.00  0.00    +0.000 H 
ATOM     12  C11 UNL A   1      25.928 -14.481  25.561  1.00  0.00    +0.000 C 
ATOM    107  H9  UNL A   1      25.748 -14.081  23.450  1.00  0.00    +0.000 H 
ATOM     15  C14 UNL A   1      23.856 -13.919  24.570  1.00  0.00    +0.000 C 
ATOM    109  H11 UNL A   1      26.206 -15.477  25.284  1.00  0.00    +0.000 H 
ATOM     13  C12 UNL A   1      24.849 -14.484  26.638  1.00  0.00    +0.000 C 
ATOM     14  C13 UNL A   1      23.535 -14.589  25.879  1.00  0.00    +0.000 C 
ATOM     16  O1  UNL A   1      23.007 -13.601  23.746  1.00  0.00    +0.000 O 
ATOM    110  H12 UNL A   1      24.884 -13.578  27.207  1.00  0.00    +0.000 H 
ATOM    111  H13 UNL A   1      24.977 -15.287  27.333  1.00  0.00    +0.000 H 
ATOM    112  H14 UNL A   1      22.750 -14.076  26.393  1.00  0.00    +0.000 H 
ATOM    113  H15 UNL A   1      23.187 -15.595  25.768  1.00  0.00    +0.000 H 
ENDBRANCH   10   11
ENDBRANCH    9   10
ENDBRANCH   20   19
BRANCH   20   21
ATOM    117  H19 UNL A   1      33.199 -12.050  22.880  1.00  0.00    +0.000 H 
ATOM     21  C19 UNL A   1      32.258 -12.443  23.203  1.00  0.00    +0.000 C 
ATOM    118  H20 UNL A   1      31.678 -12.727  22.351  1.00  0.00    +0.000 H 
ATOM    119  H21 UNL A   1      32.422 -13.300  23.823  1.00  0.00    +0.000 H 
ENDBRANCH   20   21
ENDBRANCH   22   20
ENDBRANCH   24   22
ENDBRANCH   25   24
ENDBRANCH   26   25
ENDBRANCH   27   26
ENDBRANCH   28   27
ENDBRANCH   29   28
ENDBRANCH   30   29
ENDBRANCH   31   30
ENDBRANCH   32   31
ENDBRANCH   34   32
ENDBRANCH   38   37
BRANCH   42   43
ATOM     43  C36 UNL A   1      24.891 -10.639  28.200  1.00  0.00    +0.000 C 
ATOM     44  C37 UNL A   1      25.604  -9.591  27.601  1.00  0.00    +0.000 C 
ATOM     45  F1  UNL A   1      26.676  -9.067  28.214  1.00  0.00    +0.000 F 
ATOM     46  C38 UNL A   1      25.195  -9.049  26.384  1.00  0.00    +0.000 C 
ATOM     47  F2  UNL A   1      25.866  -8.018  25.853  1.00  0.00    +0.000 F 
ATOM     48  C39 UNL A   1      24.088  -9.568  25.729  1.00  0.00    +0.000 C 
ATOM     49  F3  UNL A   1      23.700  -9.050  24.556  1.00  0.00    +0.000 F 
ATOM     50  C40 UNL A   1      23.380 -10.618  26.294  1.00  0.00    +0.000 C 
ATOM     51  F4  UNL A   1      22.317 -11.127  25.656  1.00  0.00    +0.000 F 
ATOM     52  C41 UNL A   1      23.770 -11.142  27.523  1.00  0.00    +0.000 C 
ATOM     53  F5  UNL A   1      23.056 -12.149  28.051  1.00  0.00    +0.000 F 
ENDBRANCH   42   43
BRANCH   59   60
ATOM     65  C50 UNL A   1      20.446  -9.934  36.513  1.00  0.00    +0.000 C 
ATOM     66  F8  UNL A   1      19.394  -9.497  37.219  1.00  0.00    +0.000 F 
ATOM     67  C51 UNL A   1      20.391 -11.164  35.875  1.00  0.00    +0.000 C 
ATOM     68  F9  UNL A   1      19.279 -11.908  35.950  1.00  0.00    +0.000 F 
ATOM     69  C52 UNL A   1      21.491 -11.629  35.159  1.00  0.00    +0.000 C 
ATOM     70  F10 UNL A   1      21.413 -12.828  34.562  1.00  0.00    +0.000 F 
ATOM     60  C47 UNL A   1      22.658 -10.858  35.051  1.00  0.00    +0.000 C 
ATOM     61  C48 UNL A   1      22.686  -9.610  35.689  1.00  0.00    +0.000 C 
ATOM     62  F6  UNL A   1      23.786  -8.844  35.627  1.00  0.00    +0.000 F 
ATOM     63  C49 UNL A   1      21.594  -9.161  36.426  1.00  0.00    +0.000 C 
ATOM     64  F7  UNL A   1      21.658  -7.983  37.063  1.00  0.00    +0.000 F 
ENDBRANCH   59   60
BRANCH   74   75
ATOM     75  C56 UNL A   1      28.326 -14.542  36.718  1.00  0.00    +0.000 C 
ATOM     76  C57 UNL A   1      27.976 -15.832  37.144  1.00  0.00    +0.000 C 
ATOM     77  F11 UNL A   1      27.140 -16.575  36.405  1.00  0.00    +0.000 F 
ATOM     78  C58 UNL A   1      28.451 -16.345  38.349  1.00  0.00    +0.000 C 
ATOM     79  F12 UNL A   1      28.069 -17.563  38.752  1.00  0.00    +0.000 F 
ATOM     80  C59 UNL A   1      29.308 -15.590  39.137  1.00  0.00    +0.000 C 
ATOM     81  F13 UNL A   1      29.768 -16.085  40.293  1.00  0.00    +0.000 F 
ATOM     82  C60 UNL A   1      29.681 -14.319  38.727  1.00  0.00    +0.000 C 
ATOM     83  F14 UNL A   1      30.518 -13.592  39.479  1.00  0.00    +0.000 F 
ATOM     84  C61 UNL A   1      29.186 -13.795  37.535  1.00  0.00    +0.000 C 
ATOM     85  F15 UNL A   1      29.555 -12.559  37.168  1.00  0.00    +0.000 F 
ENDBRANCH   74   75
TORSDOF 22
ENDMDL
MODEL 10
REMARK VINA RESULT:      -7.4      2.378      4.973
ROOT
ATOM    136  H38 UNL A   1      13.325  46.519   3.289  1.00  0.00    +0.000 H 
ATOM    137  H39 UNL A   1      14.934  46.646   1.241  1.00  0.00    +0.000 H 
ATOM    138  H40 UNL A   1      14.719  50.405   2.961  1.00  0.00    +0.000 H 
ATOM    139  H41 UNL A   1      16.272  56.596   2.898  1.00  0.00    +0.000 H 
ATOM    140  H42 UNL A   1      14.726  56.462   4.910  1.00  0.00    +0.000 H 
ATOM    141  H43 UNL A   1      14.947  52.669   3.221  1.00  0.00    +0.000 H 
ATOM    142  H44 UNL A   1      18.151  53.055  -0.634  1.00  0.00    +0.000 H 
ATOM    143  H45 UNL A   1      17.665  50.589  -1.116  1.00  0.00    +0.000 H 
ATOM    144  H46 UNL A   1      11.747  50.074   6.985  1.00  0.00    +0.000 H 
ATOM    145  H47 UNL A   1      11.846  52.624   7.214  1.00  0.00    +0.000 H 
ATOM     38  C32 UNL A   1      13.642  53.868   5.385  1.00  0.00    +0.000 C 
ATOM     39  C33 UNL A   1      13.251  52.418   5.445  1.00  0.00    +0.000 C 
ATOM     40  N3  UNL A   1      13.637  51.423   4.686  1.00  0.00    +0.000 N 
ATOM     41  C34 UNL A   1      13.017  50.293   5.200  1.00  0.00    +0.000 C 
ATOM     42  C35 UNL A   1      13.058  49.021   4.734  1.00  0.00    +0.000 C 
ATOM     54  C42 UNL A   1      13.778  48.611   3.557  1.00  0.00    +0.000 C 
ATOM     55  C43 UNL A   1      13.829  47.360   2.967  1.00  0.00    +0.000 C 
ATOM     56  C44 UNL A   1      14.682  47.431   1.860  1.00  0.00    +0.000 C 
ATOM     57  C45 UNL A   1      15.130  48.736   1.738  1.00  0.00    +0.000 C 
ATOM     58  N4  UNL A   1      14.573  49.448   2.788  1.00  0.00    +0.000 N 
ATOM     59  C46 UNL A   1      16.002  49.295   0.737  1.00  0.00    +0.000 C 
ATOM     71  C53 UNL A   1      16.396  50.590   0.683  1.00  0.00    +0.000 C 
ATOM     72  N5  UNL A   1      16.067  51.638   1.531  1.00  0.00    +0.000 N 
ATOM     73  C54 UNL A   1      16.703  52.687   1.072  1.00  0.00    +0.000 C 
ATOM     74  C55 UNL A   1      16.693  54.102   1.582  1.00  0.00    +0.000 C 
ATOM     86  C62 UNL A   1      15.920  54.416   2.638  1.00  0.00    +0.000 C 
ATOM     87  C63 UNL A   1      15.799  55.742   3.235  1.00  0.00    +0.000 C 
ATOM     88  C64 UNL A   1      14.974  55.673   4.292  1.00  0.00    +0.000 C 
ATOM     89  C65 UNL A   1      14.486  54.301   4.428  1.00  0.00    +0.000 C 
ATOM     90  N6  UNL A   1      15.091  53.627   3.398  1.00  0.00    +0.000 N 
ATOM     91  C66 UNL A   1      17.533  52.415  -0.111  1.00  0.00    +0.000 C 
ATOM     92  C67 UNL A   1      17.281  51.132  -0.328  1.00  0.00    +0.000 C 
ATOM     93  C68 UNL A   1      12.264  50.714   6.361  1.00  0.00    +0.000 C 
ATOM     94  C69 UNL A   1      12.324  52.028   6.519  1.00  0.00    +0.000 C 
ENDROOT
BRANCH   38   37
ATOM     34  C28 UNL A   1      12.184  56.587   8.363  1.00  0.00    +0.000 C 
ATOM     35  C29 UNL A   1      13.309  55.802   8.635  1.00  0.00    +0.000 C 
ATOM     36  C30 UNL A   1      13.802  54.930   7.660  1.00  0.00    +0.000 C 
ATOM     37  C31 UNL A   1      13.157  54.817   6.419  1.00  0.00    +0.000 C 
ATOM    134  H36 UNL A   1      13.774  55.866   9.554  1.00  0.00    +0.000 H 
ATOM    135  H37 UNL A   1      14.645  54.368   7.854  1.00  0.00    +0.000 H 
ATOM    146  H48 UNL A   1      11.551  55.538   5.245  1.00  0.00    +0.000 H 
ATOM    147  H49 UNL A   1      10.805  57.170   6.874  1.00  0.00    +0.000 H 
ATOM     95  C70 UNL A   1      12.039  55.622   6.151  1.00  0.00    +0.000 C 
ATOM     96  C71 UNL A   1      11.584  56.534   7.102  1.00  0.00    +0.000 C 
BRANCH   34   32
ATOM     33  O3  UNL A   1      11.712  58.718   9.213  1.00  0.00    +0.000 O 
ATOM     32  C27 UNL A   1      11.692  57.514   9.410  1.00  0.00    +0.000 C 
BRANCH   32   31
ATOM    133  H35 UNL A   1      11.858  56.555  11.163  1.00  0.00    +0.000 H 
ATOM     31  N2  UNL A   1      11.202  57.020  10.597  1.00  0.00    +0.000 N 
BRANCH   31   30
ATOM    131  H33 UNL A   1       9.904  57.379  12.161  1.00  0.00    +0.000 H 
ATOM    132  H34 UNL A   1       9.302  57.801  10.557  1.00  0.00    +0.000 H 
ATOM     30  C26 UNL A   1       9.853  57.087  11.133  1.00  0.00    +0.000 C 
BRANCH   30   29
ATOM    129  H31 UNL A   1       8.358  55.833  10.303  1.00  0.00    +0.000 H 
ATOM    130  H32 UNL A   1       9.878  55.021  10.779  1.00  0.00    +0.000 H 
ATOM     29  C25 UNL A   1       9.132  55.743  11.037  1.00  0.00    +0.000 C 
BRANCH   29   28
ATOM     28  C24 UNL A   1       8.495  55.260  12.344  1.00  0.00    +0.000 C 
ATOM    127  H29 UNL A   1       9.027  55.710  13.155  1.00  0.00    +0.000 H 
ATOM    128  H30 UNL A   1       7.465  55.545  12.290  1.00  0.00    +0.000 H 
BRANCH   28   27
ATOM     27  C23 UNL A   1       8.498  53.742  12.564  1.00  0.00    +0.000 C 
ATOM    125  H27 UNL A   1       8.969  53.543  13.504  1.00  0.00    +0.000 H 
ATOM    126  H28 UNL A   1       7.473  53.434  12.527  1.00  0.00    +0.000 H 
BRANCH   27   26
ATOM     26  C22 UNL A   1       9.225  52.930  11.487  1.00  0.00    +0.000 C 
ATOM    123  H25 UNL A   1       8.820  53.200  10.534  1.00  0.00    +0.000 H 
ATOM    124  H26 UNL A   1      10.265  53.164  11.576  1.00  0.00    +0.000 H 
BRANCH   26   25
ATOM     25  C21 UNL A   1       9.097  51.413  11.653  1.00  0.00    +0.000 C 
ATOM    122  H24 UNL A   1       9.091  50.971  10.679  1.00  0.00    +0.000 H 
ATOM    121  H23 UNL A   1       8.191  51.197  12.178  1.00  0.00    +0.000 H 
BRANCH   25   24
ATOM    120  H22 UNL A   1      10.929  50.496  11.826  1.00  0.00    +0.000 H 
ATOM     24  N1  UNL A   1      10.210  50.859  12.393  1.00  0.00    +0.000 N 
BRANCH   24   22
ATOM     22  C20 UNL A   1      10.445  50.748  13.729  1.00  0.00    +0.000 C 
ATOM     23  O2  UNL A   1       9.611  50.094  14.368  1.00  0.00    +0.000 O 
BRANCH   22   20
ATOM    116  H18 UNL A   1      12.491  51.129  13.845  1.00  0.00    +0.000 H 
ATOM     20  C18 UNL A   1      11.647  51.380  14.453  1.00  0.00    +0.000 C 
BRANCH   20   19
ATOM      7  C6  UNL A   1      12.245  53.677  13.446  1.00  0.00    +0.000 C 
ATOM      8  C7  UNL A   1      12.083  55.080  13.443  1.00  0.00    +0.000 C 
ATOM      9  C8  UNL A   1      11.391  55.742  14.463  1.00  0.00    +0.000 C 
ATOM    104  H6  UNL A   1      12.486  55.631  12.668  1.00  0.00    +0.000 H 
ATOM     17  C15 UNL A   1      10.808  54.984  15.474  1.00  0.00    +0.000 C 
ATOM     18  C16 UNL A   1      10.930  53.596  15.472  1.00  0.00    +0.000 C 
ATOM     19  C17 UNL A   1      11.609  52.909  14.451  1.00  0.00    +0.000 C 
ATOM    115  H17 UNL A   1      10.508  53.057  16.243  1.00  0.00    +0.000 H 
ATOM    114  H16 UNL A   1      10.284  55.452  16.229  1.00  0.00    +0.000 H 
BRANCH    7    6
ATOM     97  C72 UNL A   1      13.015  52.820  11.195  1.00  0.00    +0.000 C 
ATOM     98  C73 UNL A   1      14.016  52.231  10.408  1.00  0.00    +0.000 C 
ATOM      3  C2  UNL A   1      15.280  51.931  10.938  1.00  0.00    +0.000 C 
ATOM      4  C3  UNL A   1      15.523  52.235  12.277  1.00  0.00    +0.000 C 
ATOM      5  C4  UNL A   1      14.524  52.811  13.064  1.00  0.00    +0.000 C 
ATOM    102  H4  UNL A   1      16.447  52.032  12.690  1.00  0.00    +0.000 H 
ATOM      6  C5  UNL A   1      13.256  53.110  12.539  1.00  0.00    +0.000 C 
ATOM    103  H5  UNL A   1      14.722  53.022  14.054  1.00  0.00    +0.000 H 
ATOM    148  H50 UNL A   1      12.097  53.041  10.778  1.00  0.00    +0.000 H 
ATOM    149  H51 UNL A   1      13.818  52.012   9.419  1.00  0.00    +0.000 H 
BRANCH    3    2
ATOM      2  S1  UNL A   1      16.474  51.156   9.855  1.00  0.00    +0.000 S 
BRANCH    2    1
ATOM      1  C1  UNL A   1      15.795  51.461   8.199  1.00  0.00    +0.000 C 
ATOM     99  H1  UNL A   1      16.596  51.567   7.499  1.00  0.00    +0.000 H 
ATOM    100  H2  UNL A   1      15.212  52.358   8.213  1.00  0.00    +0.000 H 
ATOM    101  H3  UNL A   1      15.175  50.637   7.911  1.00  0.00    +0.000 H 
ENDBRANCH    2    1
ENDBRANCH    3    2
ENDBRANCH    7    6
BRANCH    9   10
ATOM    105  H7  UNL A   1      10.585  57.617  13.959  1.00  0.00    +0.000 H 
ATOM     10  C9  UNL A   1      11.393  57.248  14.556  1.00  0.00    +0.000 C 
ATOM    106  H8  UNL A   1      12.355  57.567  14.214  1.00  0.00    +0.000 H 
BRANCH   10   11
ATOM     11  C10 UNL A   1      11.234  57.813  15.975  1.00  0.00    +0.000 C 
ATOM    108  H10 UNL A   1      13.182  58.728  15.889  1.00  0.00    +0.000 H 
ATOM     12  C11 UNL A   1      12.276  58.837  16.448  1.00  0.00    +0.000 C 
ATOM    107  H9  UNL A   1      11.310  56.912  16.545  1.00  0.00    +0.000 H 
ATOM     15  C14 UNL A   1       9.946  58.592  16.129  1.00  0.00    +0.000 C 
ATOM    109  H11 UNL A   1      12.519  58.697  17.481  1.00  0.00    +0.000 H 
ATOM     13  C12 UNL A   1      11.664  60.212  16.201  1.00  0.00    +0.000 C 
ATOM     14  C13 UNL A   1      10.178  60.037  16.478  1.00  0.00    +0.000 C 
ATOM     16  O1  UNL A   1       8.832  58.095  16.009  1.00  0.00    +0.000 O 
ATOM    110  H12 UNL A   1      11.824  60.519  15.189  1.00  0.00    +0.000 H 
ATOM    111  H13 UNL A   1      12.103  60.964  16.822  1.00  0.00    +0.000 H 
ATOM    112  H14 UNL A   1       9.591  60.683  15.860  1.00  0.00    +0.000 H 
ATOM    113  H15 UNL A   1       9.901  60.282  17.483  1.00  0.00    +0.000 H 
ENDBRANCH   10   11
ENDBRANCH    9   10
ENDBRANCH   20   19
BRANCH   20   21
ATOM    117  H19 UNL A   1      12.654  49.887  15.606  1.00  0.00    +0.000 H 
ATOM     21  C19 UNL A   1      12.028  50.736  15.786  1.00  0.00    +0.000 C 
ATOM    118  H20 UNL A   1      11.142  50.424  16.297  1.00  0.00    +0.000 H 
ATOM    119  H21 UNL A   1      12.555  51.448  16.387  1.00  0.00    +0.000 H 
ENDBRANCH   20   21
ENDBRANCH   22   20
ENDBRANCH   24   22
ENDBRANCH   25   24
ENDBRANCH   26   25
ENDBRANCH   27   26
ENDBRANCH   28   27
ENDBRANCH   29   28
ENDBRANCH   30   29
ENDBRANCH   31   30
ENDBRANCH   32   31
ENDBRANCH   34   32
ENDBRANCH   38   37
BRANCH   42   43
ATOM     43  C36 UNL A   1      12.295  47.978   5.497  1.00  0.00    +0.000 C 
ATOM     44  C37 UNL A   1      12.841  47.347   6.624  1.00  0.00    +0.000 C 
ATOM     45  F1  UNL A   1      14.091  47.631   7.018  1.00  0.00    +0.000 F 
ATOM     46  C38 UNL A   1      12.117  46.389   7.331  1.00  0.00    +0.000 C 
ATOM     47  F2  UNL A   1      12.676  45.767   8.378  1.00  0.00    +0.000 F 
ATOM     48  C39 UNL A   1      10.823  46.071   6.945  1.00  0.00    +0.000 C 
ATOM     49  F3  UNL A   1      10.125  45.155   7.629  1.00  0.00    +0.000 F 
ATOM     50  C40 UNL A   1      10.257  46.698   5.845  1.00  0.00    +0.000 C 
ATOM     51  F4  UNL A   1       9.003  46.399   5.478  1.00  0.00    +0.000 F 
ATOM     52  C41 UNL A   1      10.988  47.634   5.120  1.00  0.00    +0.000 C 
ATOM     53  F5  UNL A   1      10.417  48.213   4.053  1.00  0.00    +0.000 F 
ENDBRANCH   42   43
BRANCH   59   60
ATOM     65  C50 UNL A   1      17.477  46.717  -2.384  1.00  0.00    +0.000 C 
ATOM     66  F8  UNL A   1      17.939  45.915  -3.353  1.00  0.00    +0.000 F 
ATOM     67  C51 UNL A   1      18.292  47.057  -1.315  1.00  0.00    +0.000 C 
ATOM     68  F9  UNL A   1      19.549  46.596  -1.260  1.00  0.00    +0.000 F 
ATOM     69  C52 UNL A   1      17.806  47.873  -0.297  1.00  0.00    +0.000 C 
ATOM     70  F10 UNL A   1      18.613  48.174   0.731  1.00  0.00    +0.000 F 
ATOM     60  C47 UNL A   1      16.499  48.382  -0.344  1.00  0.00    +0.000 C 
ATOM     61  C48 UNL A   1      15.697  48.041  -1.443  1.00  0.00    +0.000 C 
ATOM     62  F6  UNL A   1      14.436  48.492  -1.524  1.00  0.00    +0.000 F 
ATOM     63  C49 UNL A   1      16.179  47.204  -2.446  1.00  0.00    +0.000 C 
ATOM     64  F7  UNL A   1      15.382  46.856  -3.465  1.00  0.00    +0.000 F 
ENDBRANCH   59   60
BRANCH   74   75
ATOM     75  C56 UNL A   1      17.499  55.156   0.916  1.00  0.00    +0.000 C 
ATOM     76  C57 UNL A   1      18.764  55.510   1.410  1.00  0.00    +0.000 C 
ATOM     77  F11 UNL A   1      19.245  54.909   2.508  1.00  0.00    +0.000 F 
ATOM     78  C58 UNL A   1      19.519  56.509   0.800  1.00  0.00    +0.000 C 
ATOM     79  F12 UNL A   1      20.706  56.857   1.316  1.00  0.00    +0.000 F 
ATOM     80  C59 UNL A   1      19.038  57.153  -0.330  1.00  0.00    +0.000 C 
ATOM     81  F13 UNL A   1      19.767  58.110  -0.919  1.00  0.00    +0.000 F 
ATOM     82  C60 UNL A   1      17.798  56.807  -0.845  1.00  0.00    +0.000 C 
ATOM     83  F14 UNL A   1      17.335  57.418  -1.944  1.00  0.00    +0.000 F 
ATOM     84  C61 UNL A   1      17.030  55.826  -0.222  1.00  0.00    +0.000 C 
ATOM     85  F15 UNL A   1      15.830  55.518  -0.735  1.00  0.00    +0.000 F 
ENDBRANCH   74   75
TORSDOF 22
ENDMDL
