MODEL 1
REMARK VINA RESULT:     -10.3      0.000      0.000
REMARK  Name = 
REMARK  15 active torsions:
REMARK  status: ('A' for Active; 'I' for Inactive)
REMARK    1  A    between atoms: C_2  and  C_3
REMARK    2  A    between atoms: C_3  and  C_4
REMARK    3  A    between atoms: N_7  and  C_8
REMARK    4  A    between atoms: N_14  and  C_15
REMARK    5  A    between atoms: C_15  and  C_16
REMARK    6  A    between atoms: C_16  and  C_17
REMARK    7  A    between atoms: C_17  and  C_18
REMARK    8  A    between atoms: C_18  and  C_19
REMARK    9  A    between atoms: C_19  and  C_20
REMARK   10  A    between atoms: C_20  and  N_21
REMARK   11  A    between atoms: C_22  and  C_24
REMARK   12  A    between atoms: C_27  and  C_28
REMARK   13  A    between atoms: C_32  and  C_33
REMARK   14  A    between atoms: C_49  and  C_50
REMARK   15  A    between atoms: C_64  and  C_65
REMARK                            x       y       z     vdW  Elec       q    Type
REMARK                         _______ _______ _______ _____ _____    ______ ____
ROOT
ATOM      1  C   UNL A   1      13.378  53.512   5.884  0.00  0.00    +0.000 C 
ATOM      2  C   UNL A   1      12.967  52.077   5.829  0.00  0.00    +0.000 C 
ATOM      3  N   UNL A   1      13.282  51.169   4.944  0.00  0.00    +0.000 NA
ATOM      4  C   UNL A   1      12.641  50.013   5.352  0.00  0.00    +0.000 C 
ATOM      5  C   UNL A   1      12.627  48.808   4.743  0.00  0.00    +0.000 C 
ATOM      6  C   UNL A   1      13.321  48.507   3.523  0.00  0.00    +0.000 A 
ATOM      7  C   UNL A   1      13.325  47.315   2.819  0.00  0.00    +0.000 A 
ATOM      8  C   UNL A   1      14.191  47.453   1.730  0.00  0.00    +0.000 A 
ATOM      9  C   UNL A   1      14.689  48.745   1.726  0.00  0.00    +0.000 A 
ATOM     10  N   UNL A   1      14.145  49.392   2.832  0.00  0.00    +0.000 N 
ATOM     11  C   UNL A   1      15.605  49.332   0.788  0.00  0.00    +0.000 C 
ATOM     12  C   UNL A   1      16.026  50.616   0.841  0.00  0.00    +0.000 C 
ATOM     13  N   UNL A   1      15.675  51.590   1.759  0.00  0.00    +0.000 NA
ATOM     14  C   UNL A   1      16.340  52.662   1.407  0.00  0.00    +0.000 C 
ATOM     15  C   UNL A   1      16.331  54.014   2.034  0.00  0.00    +0.000 C 
ATOM     16  C   UNL A   1      15.592  54.228   3.137  0.00  0.00    +0.000 A 
ATOM     17  C   UNL A   1      15.483  55.512   3.823  0.00  0.00    +0.000 A 
ATOM     18  C   UNL A   1      14.683  55.372   4.890  0.00  0.00    +0.000 A 
ATOM     19  C   UNL A   1      14.212  53.991   4.947  0.00  0.00    +0.000 A 
ATOM     20  N   UNL A   1      14.800  53.375   3.867  0.00  0.00    +0.000 N 
ATOM     21  C   UNL A   1      17.194  52.487   0.225  0.00  0.00    +0.000 C 
ATOM     22  C   UNL A   1      16.954  51.220  -0.089  0.00  0.00    +0.000 C 
ATOM     23  C   UNL A   1      11.941  50.323   6.579  0.00  0.00    +0.000 C 
ATOM     24  C   UNL A   1      12.090  51.599   6.906  0.00  0.00    +0.000 C 
ATOM     25  H   UNL A   1      14.329  50.361   3.102  0.00  0.00    +0.000 HD
ATOM     26  H   UNL A   1      14.647  52.393   3.621  0.00  0.00    +0.000 HD
ENDROOT
BRANCH   5  27
ATOM     27  C   UNL A   1      11.825  47.726   5.394  0.00  0.00    +0.000 A 
ATOM     28  C   UNL A   1      12.395  46.891   6.365  0.00  0.00    +0.000 A 
ATOM     29  F   UNL A   1      13.683  47.038   6.707  0.00  0.00    +0.000 F 
ATOM     30  C   UNL A   1      11.646  45.888   6.971  0.00  0.00    +0.000 A 
ATOM     31  F   UNL A   1      12.217  45.079   7.876  0.00  0.00    +0.000 F 
ATOM     32  C   UNL A   1      10.313  45.711   6.629  0.00  0.00    +0.000 A 
ATOM     33  F   UNL A   1       9.598  44.733   7.203  0.00  0.00    +0.000 F 
ATOM     34  C   UNL A   1       9.728  46.533   5.677  0.00  0.00    +0.000 A 
ATOM     35  F   UNL A   1       8.443  46.356   5.340  0.00  0.00    +0.000 F 
ATOM     36  C   UNL A   1      10.478  47.531   5.059  0.00  0.00    +0.000 A 
ATOM     37  F   UNL A   1       9.900  48.292   4.119  0.00  0.00    +0.000 F 
ENDBRANCH   5  27
BRANCH  11  38
ATOM     38  C   UNL A   1      16.138  48.489  -0.329  0.00  0.00    +0.000 A 
ATOM     39  C   UNL A   1      15.350  48.190  -1.449  0.00  0.00    +0.000 A 
ATOM     40  F   UNL A   1      14.099  48.667  -1.537  0.00  0.00    +0.000 F 
ATOM     41  C   UNL A   1      15.839  47.383  -2.474  0.00  0.00    +0.000 A 
ATOM     42  F   UNL A   1      15.058  47.084  -3.520  0.00  0.00    +0.000 F 
ATOM     43  C   UNL A   1      17.130  46.874  -2.408  0.00  0.00    +0.000 A 
ATOM     44  F   UNL A   1      17.593  46.088  -3.391  0.00  0.00    +0.000 F 
ATOM     45  C   UNL A   1      17.931  47.174  -1.315  0.00  0.00    +0.000 A 
ATOM     46  F   UNL A   1      19.176  46.682  -1.247  0.00  0.00    +0.000 F 
ATOM     47  C   UNL A   1      17.441  47.972  -0.285  0.00  0.00    +0.000 A 
ATOM     48  F   UNL A   1      18.229  48.231   0.770  0.00  0.00    +0.000 F 
ENDBRANCH  11  38
BRANCH  15  49
ATOM     49  C   UNL A   1      17.113  55.133   1.463  0.00  0.00    +0.000 A 
ATOM     50  C   UNL A   1      18.414  55.403   1.903  0.00  0.00    +0.000 A 
ATOM     51  F   UNL A   1      19.006  54.587   2.786  0.00  0.00    +0.000 F 
ATOM     52  C   UNL A   1      19.107  56.520   1.438  0.00  0.00    +0.000 A 
ATOM     53  F   UNL A   1      20.345  56.771   1.885  0.00  0.00    +0.000 F 
ATOM     54  C   UNL A   1      18.510  57.374   0.523  0.00  0.00    +0.000 A 
ATOM     55  F   UNL A   1      19.173  58.455   0.084  0.00  0.00    +0.000 F 
ATOM     56  C   UNL A   1      17.230  57.108   0.058  0.00  0.00    +0.000 A 
ATOM     57  F   UNL A   1      16.655  57.923  -0.838  0.00  0.00    +0.000 F 
ATOM     58  C   UNL A   1      16.536  55.993   0.523  0.00  0.00    +0.000 A 
ATOM     59  F   UNL A   1      15.296  55.749   0.074  0.00  0.00    +0.000 F 
ENDBRANCH  15  49
BRANCH   1  63
ATOM     60  C   UNL A   1      11.793  55.864   9.085  0.00  0.00    +0.000 A 
ATOM     61  C   UNL A   1      11.102  55.783   7.869  0.00  0.00    +0.000 A 
ATOM     62  C   UNL A   1      11.638  55.047   6.809  0.00  0.00    +0.000 A 
ATOM     63  C   UNL A   1      12.869  54.391   6.958  0.00  0.00    +0.000 A 
ATOM     64  C   UNL A   1      13.587  54.531   8.152  0.00  0.00    +0.000 A 
ATOM     65  C   UNL A   1      13.051  55.264   9.213  0.00  0.00    +0.000 A 
BRANCH  60  67
ATOM     66  N   UNL A   1      10.767  55.695  11.283  0.00  0.00    +0.000 N 
ATOM     67  C   UNL A   1      11.230  56.539  10.283  0.00  0.00    +0.000 C 
ATOM     68  O   UNL A   1      11.269  57.764  10.336  0.00  0.00    +0.000 OA
ATOM     69  H   UNL A   1      10.833  54.688  11.165  0.00  0.00    +0.000 HD
BRANCH  66  70
ATOM     70  C   UNL A   1      10.280  56.183  12.568  0.00  0.00    +0.000 C 
BRANCH  70  71
ATOM     71  C   UNL A   1      11.035  55.551  13.731  0.00  0.00    +0.000 C 
BRANCH  71  72
ATOM     72  C   UNL A   1      11.836  54.332  13.270  0.00  0.00    +0.000 C 
BRANCH  72  73
ATOM     73  C   UNL A   1      13.340  54.550  13.442  0.00  0.00    +0.000 C 
BRANCH  73  74
ATOM     74  C   UNL A   1      14.154  53.750  12.421  0.00  0.00    +0.000 C 
BRANCH  74  75
ATOM     75  C   UNL A   1      14.891  52.595  13.099  0.00  0.00    +0.000 C 
BRANCH  75  78
ATOM     76  O   UNL A   1      14.816  50.221  11.538  0.00  0.00    +0.000 OA
ATOM     77  C   UNL A   1      15.835  50.907  11.550  0.00  0.00    +0.000 C 
ATOM     78  N   UNL A   1      15.965  52.065  12.283  0.00  0.00    +0.000 N 
ATOM     79  H   UNL A   1      16.804  52.618  12.178  0.00  0.00    +0.000 HD
BRANCH  77  80
ATOM     80  C   UNL A   1      17.077  50.547  10.732  0.00  0.00    +0.000 C 
BRANCH  80  81
ATOM     81  C   UNL A   1      16.777  50.170   9.301  0.00  0.00    +0.000 A 
ATOM     82  C   UNL A   1      16.578  48.768   8.990  0.00  0.00    +0.000 A 
ATOM     83  C   UNL A   1      16.427  48.375   7.718  0.00  0.00    +0.000 A 
ATOM     84  N   UNL A   1      16.424  49.283   6.678  0.00  0.00    +0.000 N 
ATOM     85  C   UNL A   1      16.586  50.641   6.878  0.00  0.00    +0.000 A 
ATOM     86  O   UNL A   1      16.562  51.477   5.984  0.00  0.00    +0.000 OA
ATOM     87  C   UNL A   1      16.781  51.066   8.297  0.00  0.00    +0.000 A 
BRANCH  84  88
ATOM     88  C   UNL A   1      16.352  48.848   5.311  0.00  0.00    +0.000 C 
ATOM     89  F   UNL A   1      17.573  48.982   4.724  0.00  0.00    +0.000 F 
ATOM     90  F   UNL A   1      16.027  47.532   5.219  0.00  0.00    +0.000 F 
ENDBRANCH  84  88
ENDBRANCH  80  81
ENDBRANCH  77  80
ENDBRANCH  75  78
ENDBRANCH  74  75
ENDBRANCH  73  74
ENDBRANCH  72  73
ENDBRANCH  71  72
ENDBRANCH  70  71
ENDBRANCH  66  70
ENDBRANCH  60  67
ENDBRANCH   1  63
TORSDOF 15
ENDMDL
MODEL 2
REMARK VINA RESULT:      -9.9      0.864      7.445
REMARK  Name = 
REMARK  15 active torsions:
REMARK  status: ('A' for Active; 'I' for Inactive)
REMARK    1  A    between atoms: C_2  and  C_3
REMARK    2  A    between atoms: C_3  and  C_4
REMARK    3  A    between atoms: N_7  and  C_8
REMARK    4  A    between atoms: N_14  and  C_15
REMARK    5  A    between atoms: C_15  and  C_16
REMARK    6  A    between atoms: C_16  and  C_17
REMARK    7  A    between atoms: C_17  and  C_18
REMARK    8  A    between atoms: C_18  and  C_19
REMARK    9  A    between atoms: C_19  and  C_20
REMARK   10  A    between atoms: C_20  and  N_21
REMARK   11  A    between atoms: C_22  and  C_24
REMARK   12  A    between atoms: C_27  and  C_28
REMARK   13  A    between atoms: C_32  and  C_33
REMARK   14  A    between atoms: C_49  and  C_50
REMARK   15  A    between atoms: C_64  and  C_65
REMARK                            x       y       z     vdW  Elec       q    Type
REMARK                         _______ _______ _______ _____ _____    ______ ____
ROOT
ATOM      1  C   UNL A   1      13.648  53.659   5.294  0.00  0.00    +0.000 C 
ATOM      2  C   UNL A   1      14.595  54.156   4.251  0.00  0.00    +0.000 C 
ATOM      3  N   UNL A   1      15.141  53.499   3.263  0.00  0.00    +0.000 NA
ATOM      4  C   UNL A   1      15.936  54.416   2.600  0.00  0.00    +0.000 C 
ATOM      5  C   UNL A   1      16.735  54.209   1.531  0.00  0.00    +0.000 C 
ATOM      6  C   UNL A   1      16.886  52.947   0.863  0.00  0.00    +0.000 A 
ATOM      7  C   UNL A   1      17.709  52.646  -0.208  0.00  0.00    +0.000 A 
ATOM      8  C   UNL A   1      17.482  51.316  -0.574  0.00  0.00    +0.000 A 
ATOM      9  C   UNL A   1      16.555  50.773   0.298  0.00  0.00    +0.000 A 
ATOM     10  N   UNL A   1      16.194  51.784   1.186  0.00  0.00    +0.000 N 
ATOM     11  C   UNL A   1      16.029  49.436   0.304  0.00  0.00    +0.000 C 
ATOM     12  C   UNL A   1      15.138  48.975   1.211  0.00  0.00    +0.000 C 
ATOM     13  N   UNL A   1      14.577  49.657   2.276  0.00  0.00    +0.000 NA
ATOM     14  C   UNL A   1      13.772  48.803   2.857  0.00  0.00    +0.000 C 
ATOM     15  C   UNL A   1      12.921  48.995   4.065  0.00  0.00    +0.000 C 
ATOM     16  C   UNL A   1      12.896  50.194   4.675  0.00  0.00    +0.000 A 
ATOM     17  C   UNL A   1      12.124  50.494   5.876  0.00  0.00    +0.000 A 
ATOM     18  C   UNL A   1      12.311  51.780   6.206  0.00  0.00    +0.000 A 
ATOM     19  C   UNL A   1      13.231  52.384   5.247  0.00  0.00    +0.000 A 
ATOM     20  N   UNL A   1      13.532  51.372   4.366  0.00  0.00    +0.000 N 
ATOM     21  C   UNL A   1      13.728  47.480   2.221  0.00  0.00    +0.000 C 
ATOM     22  C   UNL A   1      14.592  47.636   1.226  0.00  0.00    +0.000 C 
ATOM     23  C   UNL A   1      15.783  55.684   3.279  0.00  0.00    +0.000 C 
ATOM     24  C   UNL A   1      14.980  55.571   4.327  0.00  0.00    +0.000 C 
ATOM     25  H   UNL A   1      15.519  51.690   1.948  0.00  0.00    +0.000 HD
ATOM     26  H   UNL A   1      14.178  51.478   3.578  0.00  0.00    +0.000 HD
ENDROOT
BRANCH   5  27
ATOM     27  C   UNL A   1      17.513  55.383   1.025  0.00  0.00    +0.000 A 
ATOM     28  C   UNL A   1      18.792  55.667   1.523  0.00  0.00    +0.000 A 
ATOM     29  F   UNL A   1      19.329  54.898   2.481  0.00  0.00    +0.000 F 
ATOM     30  C   UNL A   1      19.514  56.758   1.049  0.00  0.00    +0.000 A 
ATOM     31  F   UNL A   1      20.725  57.032   1.558  0.00  0.00    +0.000 F 
ATOM     32  C   UNL A   1      18.979  57.573   0.062  0.00  0.00    +0.000 A 
ATOM     33  F   UNL A   1      19.671  58.632  -0.381  0.00  0.00    +0.000 F 
ATOM     34  C   UNL A   1      17.718  57.302  -0.449  0.00  0.00    +0.000 A 
ATOM     35  F   UNL A   1      17.196  58.096  -1.396  0.00  0.00    +0.000 F 
ATOM     36  C   UNL A   1      16.986  56.219   0.031  0.00  0.00    +0.000 A 
ATOM     37  F   UNL A   1      15.757  55.997  -0.455  0.00  0.00    +0.000 F 
ENDBRANCH   5  27
BRANCH  11  38
ATOM     38  C   UNL A   1      16.485  48.474  -0.749  0.00  0.00    +0.000 A 
ATOM     39  C   UNL A   1      15.692  48.201  -1.872  0.00  0.00    +0.000 A 
ATOM     40  F   UNL A   1      14.506  48.811  -2.021  0.00  0.00    +0.000 F 
ATOM     41  C   UNL A   1      16.108  47.286  -2.837  0.00  0.00    +0.000 A 
ATOM     42  F   UNL A   1      15.320  47.017  -3.886  0.00  0.00    +0.000 F 
ATOM     43  C   UNL A   1      17.331  46.640  -2.706  0.00  0.00    +0.000 A 
ATOM     44  F   UNL A   1      17.721  45.750  -3.631  0.00  0.00    +0.000 F 
ATOM     45  C   UNL A   1      18.137  46.910  -1.610  0.00  0.00    +0.000 A 
ATOM     46  F   UNL A   1      19.316  46.285  -1.480  0.00  0.00    +0.000 F 
ATOM     47  C   UNL A   1      17.720  47.817  -0.640  0.00  0.00    +0.000 A 
ATOM     48  F   UNL A   1      18.510  48.047   0.420  0.00  0.00    +0.000 F 
ENDBRANCH  11  38
BRANCH  15  49
ATOM     49  C   UNL A   1      12.107  47.889   4.617  0.00  0.00    +0.000 A 
ATOM     50  C   UNL A   1      10.731  47.814   4.372  0.00  0.00    +0.000 A 
ATOM     51  F   UNL A   1      10.147  48.696   3.550  0.00  0.00    +0.000 F 
ATOM     52  C   UNL A   1       9.951  46.831   4.980  0.00  0.00    +0.000 A 
ATOM     53  F   UNL A   1       8.633  46.785   4.747  0.00  0.00    +0.000 F 
ATOM     54  C   UNL A   1      10.539  45.908   5.832  0.00  0.00    +0.000 A 
ATOM     55  F   UNL A   1       9.787  44.969   6.425  0.00  0.00    +0.000 F 
ATOM     56  C   UNL A   1      11.906  45.954   6.068  0.00  0.00    +0.000 A 
ATOM     57  F   UNL A   1      12.481  45.056   6.880  0.00  0.00    +0.000 F 
ATOM     58  C   UNL A   1      12.686  46.937   5.462  0.00  0.00    +0.000 A 
ATOM     59  F   UNL A   1      14.005  46.978   5.703  0.00  0.00    +0.000 F 
ENDBRANCH  15  49
BRANCH   1  63
ATOM     60  C   UNL A   1      12.149  56.100   8.469  0.00  0.00    +0.000 A 
ATOM     61  C   UNL A   1      11.526  56.126   7.214  0.00  0.00    +0.000 A 
ATOM     62  C   UNL A   1      12.039  55.359   6.165  0.00  0.00    +0.000 A 
ATOM     63  C   UNL A   1      13.178  54.565   6.364  0.00  0.00    +0.000 A 
ATOM     64  C   UNL A   1      13.835  54.595   7.600  0.00  0.00    +0.000 A 
ATOM     65  C   UNL A   1      13.322  55.359   8.651  0.00  0.00    +0.000 A 
BRANCH  60  67
ATOM     66  N   UNL A   1      11.135  55.989  10.676  0.00  0.00    +0.000 N 
ATOM     67  C   UNL A   1      11.594  56.806   9.653  0.00  0.00    +0.000 C 
ATOM     68  O   UNL A   1      11.638  58.032   9.676  0.00  0.00    +0.000 OA
ATOM     69  H   UNL A   1      11.197  54.979  10.583  0.00  0.00    +0.000 HD
BRANCH  66  70
ATOM     70  C   UNL A   1      10.657  56.511  11.951  0.00  0.00    +0.000 C 
BRANCH  70  71
ATOM     71  C   UNL A   1      11.264  55.758  13.130  0.00  0.00    +0.000 C 
BRANCH  71  72
ATOM     72  C   UNL A   1      12.175  54.626  12.648  0.00  0.00    +0.000 C 
BRANCH  72  73
ATOM     73  C   UNL A   1      13.413  54.488  13.535  0.00  0.00    +0.000 C 
BRANCH  73  74
ATOM     74  C   UNL A   1      14.298  53.315  13.101  0.00  0.00    +0.000 C 
BRANCH  74  75
ATOM     75  C   UNL A   1      14.602  53.389  11.605  0.00  0.00    +0.000 C 
BRANCH  75  78
ATOM     76  O   UNL A   1      16.585  51.525  10.785  0.00  0.00    +0.000 OA
ATOM     77  C   UNL A   1      15.400  51.280  10.577  0.00  0.00    +0.000 C 
ATOM     78  N   UNL A   1      14.374  52.127  10.929  0.00  0.00    +0.000 N 
ATOM     79  H   UNL A   1      13.420  51.819  10.799  0.00  0.00    +0.000 HD
BRANCH  77  80
ATOM     80  C   UNL A   1      14.936  49.986   9.905  0.00  0.00    +0.000 C 
BRANCH  80  81
ATOM     81  C   UNL A   1      15.429  49.822   8.488  0.00  0.00    +0.000 A 
ATOM     82  C   UNL A   1      15.663  48.479   7.995  0.00  0.00    +0.000 A 
ATOM     83  C   UNL A   1      16.212  48.290   6.787  0.00  0.00    +0.000 A 
ATOM     84  N   UNL A   1      16.538  49.353   5.969  0.00  0.00    +0.000 N 
ATOM     85  C   UNL A   1      16.333  50.668   6.344  0.00  0.00    +0.000 A 
ATOM     86  O   UNL A   1      16.586  51.634   5.635  0.00  0.00    +0.000 OA
ATOM     87  C   UNL A   1      15.747  50.869   7.703  0.00  0.00    +0.000 A 
BRANCH  84  88
ATOM     88  C   UNL A   1      17.207  49.149   4.715  0.00  0.00    +0.000 C 
ATOM     89  F   UNL A   1      16.775  47.990   4.148  0.00  0.00    +0.000 F 
ATOM     90  F   UNL A   1      16.922  50.137   3.827  0.00  0.00    +0.000 F 
ENDBRANCH  84  88
ENDBRANCH  80  81
ENDBRANCH  77  80
ENDBRANCH  75  78
ENDBRANCH  74  75
ENDBRANCH  73  74
ENDBRANCH  72  73
ENDBRANCH  71  72
ENDBRANCH  70  71
ENDBRANCH  66  70
ENDBRANCH  60  67
ENDBRANCH   1  63
TORSDOF 15
ENDMDL
MODEL 3
REMARK VINA RESULT:      -9.9     42.519     46.255
REMARK  Name = 
REMARK  15 active torsions:
REMARK  status: ('A' for Active; 'I' for Inactive)
REMARK    1  A    between atoms: C_2  and  C_3
REMARK    2  A    between atoms: C_3  and  C_4
REMARK    3  A    between atoms: N_7  and  C_8
REMARK    4  A    between atoms: N_14  and  C_15
REMARK    5  A    between atoms: C_15  and  C_16
REMARK    6  A    between atoms: C_16  and  C_17
REMARK    7  A    between atoms: C_17  and  C_18
REMARK    8  A    between atoms: C_18  and  C_19
REMARK    9  A    between atoms: C_19  and  C_20
REMARK   10  A    between atoms: C_20  and  N_21
REMARK   11  A    between atoms: C_22  and  C_24
REMARK   12  A    between atoms: C_27  and  C_28
REMARK   13  A    between atoms: C_32  and  C_33
REMARK   14  A    between atoms: C_49  and  C_50
REMARK   15  A    between atoms: C_64  and  C_65
REMARK                            x       y       z     vdW  Elec       q    Type
REMARK                         _______ _______ _______ _____ _____    ______ ____
ROOT
ATOM      1  C   UNL A   1      25.700  35.059  45.252  0.00  0.00    +0.000 C 
ATOM      2  C   UNL A   1      25.370  36.166  46.199  0.00  0.00    +0.000 C 
ATOM      3  N   UNL A   1      26.125  37.155  46.596  0.00  0.00    +0.000 NA
ATOM      4  C   UNL A   1      25.346  37.891  47.470  0.00  0.00    +0.000 C 
ATOM      5  C   UNL A   1      25.692  38.991  48.174  0.00  0.00    +0.000 C 
ATOM      6  C   UNL A   1      26.983  39.617  48.116  0.00  0.00    +0.000 A 
ATOM      7  C   UNL A   1      27.426  40.716  48.831  0.00  0.00    +0.000 A 
ATOM      8  C   UNL A   1      28.724  41.020  48.406  0.00  0.00    +0.000 A 
ATOM      9  C   UNL A   1      29.107  40.082  47.464  0.00  0.00    +0.000 A 
ATOM     10  N   UNL A   1      28.030  39.216  47.292  0.00  0.00    +0.000 N 
ATOM     11  C   UNL A   1      30.359  39.999  46.763  0.00  0.00    +0.000 C 
ATOM     12  C   UNL A   1      30.666  39.032  45.870  0.00  0.00    +0.000 C 
ATOM     13  N   UNL A   1      29.882  37.967  45.465  0.00  0.00    +0.000 NA
ATOM     14  C   UNL A   1      30.600  37.314  44.585  0.00  0.00    +0.000 C 
ATOM     15  C   UNL A   1      30.256  36.072  43.836  0.00  0.00    +0.000 C 
ATOM     16  C   UNL A   1      29.047  35.508  44.007  0.00  0.00    +0.000 A 
ATOM     17  C   UNL A   1      28.607  34.282  43.349  0.00  0.00    +0.000 A 
ATOM     18  C   UNL A   1      27.349  34.010  43.726  0.00  0.00    +0.000 A 
ATOM     19  C   UNL A   1      26.907  35.037  44.665  0.00  0.00    +0.000 A 
ATOM     20  N   UNL A   1      27.977  35.893  44.778  0.00  0.00    +0.000 N 
ATOM     21  C   UNL A   1      31.923  37.897  44.328  0.00  0.00    +0.000 C 
ATOM     22  C   UNL A   1      31.917  38.939  45.149  0.00  0.00    +0.000 C 
ATOM     23  C   UNL A   1      24.049  37.253  47.527  0.00  0.00    +0.000 C 
ATOM     24  C   UNL A   1      24.018  36.163  46.774  0.00  0.00    +0.000 C 
ATOM     25  H   UNL A   1      28.008  38.418  46.653  0.00  0.00    +0.000 HD
ATOM     26  H   UNL A   1      27.984  36.716  45.387  0.00  0.00    +0.000 HD
ENDROOT
BRANCH   5  27
ATOM     27  C   UNL A   1      24.652  39.578  49.073  0.00  0.00    +0.000 A 
ATOM     28  C   UNL A   1      24.473  39.098  50.378  0.00  0.00    +0.000 A 
ATOM     29  F   UNL A   1      25.222  38.081  50.830  0.00  0.00    +0.000 F 
ATOM     30  C   UNL A   1      23.507  39.647  51.214  0.00  0.00    +0.000 A 
ATOM     31  F   UNL A   1      23.330  39.155  52.448  0.00  0.00    +0.000 F 
ATOM     32  C   UNL A   1      22.714  40.696  50.768  0.00  0.00    +0.000 A 
ATOM     33  F   UNL A   1      21.773  41.213  51.570  0.00  0.00    +0.000 F 
ATOM     34  C   UNL A   1      22.882  41.191  49.483  0.00  0.00    +0.000 A 
ATOM     35  F   UNL A   1      22.110  42.197  49.048  0.00  0.00    +0.000 F 
ATOM     36  C   UNL A   1      23.840  40.635  48.638  0.00  0.00    +0.000 A 
ATOM     37  F   UNL A   1      23.962  41.110  47.391  0.00  0.00    +0.000 F 
ENDBRANCH   5  27
BRANCH  11  38
ATOM     38  C   UNL A   1      31.406  41.036  47.027  0.00  0.00    +0.000 A 
ATOM     39  C   UNL A   1      32.533  40.744  47.809  0.00  0.00    +0.000 A 
ATOM     40  F   UNL A   1      32.691  39.517  48.328  0.00  0.00    +0.000 F 
ATOM     41  C   UNL A   1      33.493  41.719  48.074  0.00  0.00    +0.000 A 
ATOM     42  F   UNL A   1      34.545  41.427  48.849  0.00  0.00    +0.000 F 
ATOM     43  C   UNL A   1      33.353  42.998  47.550  0.00  0.00    +0.000 A 
ATOM     44  F   UNL A   1      34.272  43.937  47.819  0.00  0.00    +0.000 F 
ATOM     45  C   UNL A   1      32.253  43.301  46.760  0.00  0.00    +0.000 A 
ATOM     46  F   UNL A   1      32.115  44.536  46.256  0.00  0.00    +0.000 F 
ATOM     47  C   UNL A   1      31.289  42.331  46.501  0.00  0.00    +0.000 A 
ATOM     48  F   UNL A   1      30.225  42.655  45.750  0.00  0.00    +0.000 F 
ENDBRANCH  11  38
BRANCH  15  49
ATOM     49  C   UNL A   1      31.223  35.439  42.912  0.00  0.00    +0.000 A 
ATOM     50  C   UNL A   1      31.333  35.861  41.582  0.00  0.00    +0.000 A 
ATOM     51  F   UNL A   1      30.628  36.916  41.152  0.00  0.00    +0.000 F 
ATOM     52  C   UNL A   1      32.169  35.193  40.688  0.00  0.00    +0.000 A 
ATOM     53  F   UNL A   1      32.249  35.601  39.415  0.00  0.00    +0.000 F 
ATOM     54  C   UNL A   1      32.909  34.100  41.116  0.00  0.00    +0.000 A 
ATOM     55  F   UNL A   1      33.704  33.451  40.253  0.00  0.00    +0.000 F 
ATOM     56  C   UNL A   1      32.829  33.682  42.437  0.00  0.00    +0.000 A 
ATOM     57  F   UNL A   1      33.553  32.636  42.858  0.00  0.00    +0.000 F 
ATOM     58  C   UNL A   1      31.993  34.349  43.330  0.00  0.00    +0.000 A 
ATOM     59  F   UNL A   1      31.916  33.932  44.603  0.00  0.00    +0.000 F 
ENDBRANCH  15  49
BRANCH   1  63
ATOM     60  C   UNL A   1      22.680  32.104  44.592  0.00  0.00    +0.000 A 
ATOM     61  C   UNL A   1      23.697  31.867  45.526  0.00  0.00    +0.000 A 
ATOM     62  C   UNL A   1      24.706  32.814  45.714  0.00  0.00    +0.000 A 
ATOM     63  C   UNL A   1      24.706  34.002  44.968  0.00  0.00    +0.000 A 
ATOM     64  C   UNL A   1      23.725  34.204  43.988  0.00  0.00    +0.000 A 
ATOM     65  C   UNL A   1      22.714  33.258  43.801  0.00  0.00    +0.000 A 
BRANCH  60  67
ATOM     66  N   UNL A   1      20.349  31.785  43.977  0.00  0.00    +0.000 N 
ATOM     67  C   UNL A   1      21.521  31.189  44.420  0.00  0.00    +0.000 C 
ATOM     68  O   UNL A   1      21.691  29.989  44.612  0.00  0.00    +0.000 OA
ATOM     69  H   UNL A   1      20.328  32.784  43.791  0.00  0.00    +0.000 HD
BRANCH  66  70
ATOM     70  C   UNL A   1      19.147  31.025  43.655  0.00  0.00    +0.000 C 
BRANCH  70  71
ATOM     71  C   UNL A   1      18.048  31.247  44.688  0.00  0.00    +0.000 C 
BRANCH  71  72
ATOM     72  C   UNL A   1      16.672  30.919  44.105  0.00  0.00    +0.000 C 
BRANCH  72  73
ATOM     73  C   UNL A   1      15.654  32.016  44.420  0.00  0.00    +0.000 C 
BRANCH  73  74
ATOM     74  C   UNL A   1      15.334  32.869  43.189  0.00  0.00    +0.000 C 
BRANCH  74  75
ATOM     75  C   UNL A   1      15.661  34.340  43.448  0.00  0.00    +0.000 C 
BRANCH  75  78
ATOM     76  O   UNL A   1      16.968  34.866  45.917  0.00  0.00    +0.000 OA
ATOM     77  C   UNL A   1      17.627  34.808  44.882  0.00  0.00    +0.000 C 
ATOM     78  N   UNL A   1      17.078  34.569  43.642  0.00  0.00    +0.000 N 
ATOM     79  H   UNL A   1      17.695  34.454  42.850  0.00  0.00    +0.000 HD
BRANCH  77  80
ATOM     80  C   UNL A   1      19.146  34.987  44.866  0.00  0.00    +0.000 C 
BRANCH  80  81
ATOM     81  C   UNL A   1      19.782  34.937  46.234  0.00  0.00    +0.000 A 
ATOM     82  C   UNL A   1      19.857  36.166  46.999  0.00  0.00    +0.000 A 
ATOM     83  C   UNL A   1      20.515  36.195  48.166  0.00  0.00    +0.000 A 
ATOM     84  N   UNL A   1      21.110  35.063  48.686  0.00  0.00    +0.000 N 
ATOM     85  C   UNL A   1      21.074  33.842  48.039  0.00  0.00    +0.000 A 
ATOM     86  O   UNL A   1      21.567  32.812  48.483  0.00  0.00    +0.000 OA
ATOM     87  C   UNL A   1      20.361  33.827  46.727  0.00  0.00    +0.000 A 
BRANCH  84  88
ATOM     88  C   UNL A   1      21.891  35.119  49.890  0.00  0.00    +0.000 C 
ATOM     89  F   UNL A   1      22.189  36.414  50.182  0.00  0.00    +0.000 F 
ATOM     90  F   UNL A   1      21.203  34.637  50.958  0.00  0.00    +0.000 F 
ENDBRANCH  84  88
ENDBRANCH  80  81
ENDBRANCH  77  80
ENDBRANCH  75  78
ENDBRANCH  74  75
ENDBRANCH  73  74
ENDBRANCH  72  73
ENDBRANCH  71  72
ENDBRANCH  70  71
ENDBRANCH  66  70
ENDBRANCH  60  67
ENDBRANCH   1  63
TORSDOF 15
ENDMDL
MODEL 4
REMARK VINA RESULT:      -9.9     48.125     52.689
REMARK  Name = 
REMARK  15 active torsions:
REMARK  status: ('A' for Active; 'I' for Inactive)
REMARK    1  A    between atoms: C_2  and  C_3
REMARK    2  A    between atoms: C_3  and  C_4
REMARK    3  A    between atoms: N_7  and  C_8
REMARK    4  A    between atoms: N_14  and  C_15
REMARK    5  A    between atoms: C_15  and  C_16
REMARK    6  A    between atoms: C_16  and  C_17
REMARK    7  A    between atoms: C_17  and  C_18
REMARK    8  A    between atoms: C_18  and  C_19
REMARK    9  A    between atoms: C_19  and  C_20
REMARK   10  A    between atoms: C_20  and  N_21
REMARK   11  A    between atoms: C_22  and  C_24
REMARK   12  A    between atoms: C_27  and  C_28
REMARK   13  A    between atoms: C_32  and  C_33
REMARK   14  A    between atoms: C_49  and  C_50
REMARK   15  A    between atoms: C_64  and  C_65
REMARK                            x       y       z     vdW  Elec       q    Type
REMARK                         _______ _______ _______ _____ _____    ______ ____
ROOT
ATOM      1  C   UNL A   1      53.457  20.159  11.906  0.00  0.00    +0.000 C 
ATOM      2  C   UNL A   1      53.182  20.797  13.228  0.00  0.00    +0.000 C 
ATOM      3  N   UNL A   1      53.955  20.868  14.278  0.00  0.00    +0.000 NA
ATOM      4  C   UNL A   1      53.226  21.555  15.231  0.00  0.00    +0.000 C 
ATOM      5  C   UNL A   1      53.581  21.850  16.501  0.00  0.00    +0.000 C 
ATOM      6  C   UNL A   1      54.839  21.496  17.095  0.00  0.00    +0.000 A 
ATOM      7  C   UNL A   1      55.261  21.726  18.393  0.00  0.00    +0.000 A 
ATOM      8  C   UNL A   1      56.579  21.275  18.511  0.00  0.00    +0.000 A 
ATOM      9  C   UNL A   1      56.963  20.720  17.302  0.00  0.00    +0.000 A 
ATOM     10  N   UNL A   1      55.883  20.856  16.433  0.00  0.00    +0.000 N 
ATOM     11  C   UNL A   1      58.228  20.127  16.968  0.00  0.00    +0.000 C 
ATOM     12  C   UNL A   1      58.517  19.582  15.765  0.00  0.00    +0.000 C 
ATOM     13  N   UNL A   1      57.694  19.479  14.658  0.00  0.00    +0.000 NA
ATOM     14  C   UNL A   1      58.415  18.890  13.736  0.00  0.00    +0.000 C 
ATOM     15  C   UNL A   1      58.027  18.511  12.348  0.00  0.00    +0.000 C 
ATOM     16  C   UNL A   1      56.797  18.817  11.897  0.00  0.00    +0.000 A 
ATOM     17  C   UNL A   1      56.296  18.476  10.569  0.00  0.00    +0.000 A 
ATOM     18  C   UNL A   1      55.045  18.942  10.440  0.00  0.00    +0.000 A 
ATOM     19  C   UNL A   1      54.656  19.597  11.686  0.00  0.00    +0.000 A 
ATOM     20  N   UNL A   1      55.757  19.479  12.502  0.00  0.00    +0.000 N 
ATOM     21  C   UNL A   1      59.782  18.556  14.155  0.00  0.00    +0.000 C 
ATOM     22  C   UNL A   1      59.788  18.991  15.409  0.00  0.00    +0.000 C 
ATOM     23  C   UNL A   1      51.959  21.905  14.629  0.00  0.00    +0.000 C 
ATOM     24  C   UNL A   1      51.870  21.436  13.393  0.00  0.00    +0.000 C 
ATOM     25  H   UNL A   1      55.864  20.543  15.460  0.00  0.00    +0.000 HD
ATOM     26  H   UNL A   1      55.790  19.829  13.464  0.00  0.00    +0.000 HD
ENDROOT
BRANCH   5  27
ATOM     27  C   UNL A   1      52.581  22.589  17.332  0.00  0.00    +0.000 A 
ATOM     28  C   UNL A   1      51.707  21.903  18.187  0.00  0.00    +0.000 A 
ATOM     29  F   UNL A   1      51.742  20.564  18.252  0.00  0.00    +0.000 F 
ATOM     30  C   UNL A   1      50.780  22.592  18.962  0.00  0.00    +0.000 A 
ATOM     31  F   UNL A   1      49.932  21.917  19.751  0.00  0.00    +0.000 F 
ATOM     32  C   UNL A   1      50.720  23.978  18.908  0.00  0.00    +0.000 A 
ATOM     33  F   UNL A   1      49.815  24.639  19.643  0.00  0.00    +0.000 F 
ATOM     34  C   UNL A   1      51.582  24.675  18.075  0.00  0.00    +0.000 A 
ATOM     35  F   UNL A   1      51.518  26.013  18.015  0.00  0.00    +0.000 F 
ATOM     36  C   UNL A   1      52.504  23.988  17.288  0.00  0.00    +0.000 A 
ATOM     37  F   UNL A   1      53.305  24.682  16.467  0.00  0.00    +0.000 F 
ENDBRANCH   5  27
BRANCH  11  38
ATOM     38  C   UNL A   1      59.309  20.096  18.004  0.00  0.00    +0.000 A 
ATOM     39  C   UNL A   1      59.622  18.913  18.688  0.00  0.00    +0.000 A 
ATOM     40  F   UNL A   1      58.954  17.782  18.415  0.00  0.00    +0.000 F 
ATOM     41  C   UNL A   1      60.611  18.894  19.670  0.00  0.00    +0.000 A 
ATOM     42  F   UNL A   1      60.871  17.760  20.334  0.00  0.00    +0.000 F 
ATOM     43  C   UNL A   1      61.316  20.051  19.975  0.00  0.00    +0.000 A 
ATOM     44  F   UNL A   1      62.258  20.031  20.929  0.00  0.00    +0.000 F 
ATOM     45  C   UNL A   1      61.033  21.227  19.295  0.00  0.00    +0.000 A 
ATOM     46  F   UNL A   1      61.710  22.346  19.589  0.00  0.00    +0.000 F 
ATOM     47  C   UNL A   1      60.039  21.251  18.320  0.00  0.00    +0.000 A 
ATOM     48  F   UNL A   1      59.771  22.406  17.692  0.00  0.00    +0.000 F 
ENDBRANCH  11  38
BRANCH  15  49
ATOM     49  C   UNL A   1      58.965  17.795  11.455  0.00  0.00    +0.000 A 
ATOM     50  C   UNL A   1      59.773  18.492  10.549  0.00  0.00    +0.000 A 
ATOM     51  F   UNL A   1      59.776  19.832  10.546  0.00  0.00    +0.000 F 
ATOM     52  C   UNL A   1      60.577  17.808   9.638  0.00  0.00    +0.000 A 
ATOM     53  F   UNL A   1      61.330  18.492   8.767  0.00  0.00    +0.000 F 
ATOM     54  C   UNL A   1      60.588  16.421   9.629  0.00  0.00    +0.000 A 
ATOM     55  F   UNL A   1      61.353  15.763   8.744  0.00  0.00    +0.000 F 
ATOM     56  C   UNL A   1      59.810  15.714  10.535  0.00  0.00    +0.000 A 
ATOM     57  F   UNL A   1      59.829  14.374  10.539  0.00  0.00    +0.000 F 
ATOM     58  C   UNL A   1      59.005  16.397  11.445  0.00  0.00    +0.000 A 
ATOM     59  F   UNL A   1      58.252  15.705  12.312  0.00  0.00    +0.000 F 
ENDBRANCH  15  49
BRANCH   1  63
ATOM     60  C   UNL A   1      50.328  20.291   8.994  0.00  0.00    +0.000 A 
ATOM     61  C   UNL A   1      50.311  19.309   9.993  0.00  0.00    +0.000 A 
ATOM     62  C   UNL A   1      51.353  19.240  10.921  0.00  0.00    +0.000 A 
ATOM     63  C   UNL A   1      52.418  20.151  10.853  0.00  0.00    +0.000 A 
ATOM     64  C   UNL A   1      52.464  21.086   9.812  0.00  0.00    +0.000 A 
ATOM     65  C   UNL A   1      51.421  21.158   8.885  0.00  0.00    +0.000 A 
BRANCH  60  67
ATOM     66  N   UNL A   1      49.562  20.672   6.718  0.00  0.00    +0.000 N 
ATOM     67  C   UNL A   1      49.201  20.486   8.044  0.00  0.00    +0.000 C 
ATOM     68  O   UNL A   1      48.055  20.406   8.474  0.00  0.00    +0.000 OA
ATOM     69  H   UNL A   1      50.544  20.664   6.455  0.00  0.00    +0.000 HD
BRANCH  66  70
ATOM     70  C   UNL A   1      48.587  20.774   5.639  0.00  0.00    +0.000 C 
BRANCH  70  71
ATOM     71  C   UNL A   1      48.273  19.410   5.034  0.00  0.00    +0.000 C 
BRANCH  71  72
ATOM     72  C   UNL A   1      46.763  19.206   4.894  0.00  0.00    +0.000 C 
BRANCH  72  73
ATOM     73  C   UNL A   1      46.418  18.437   3.617  0.00  0.00    +0.000 C 
BRANCH  73  74
ATOM     74  C   UNL A   1      45.312  17.404   3.854  0.00  0.00    +0.000 C 
BRANCH  74  75
ATOM     75  C   UNL A   1      45.892  15.991   3.910  0.00  0.00    +0.000 C 
BRANCH  75  78
ATOM     76  O   UNL A   1      47.685  14.031   4.921  0.00  0.00    +0.000 OA
ATOM     77  C   UNL A   1      48.123  14.974   4.268  0.00  0.00    +0.000 C 
ATOM     78  N   UNL A   1      47.332  15.974   3.748  0.00  0.00    +0.000 N 
ATOM     79  H   UNL A   1      47.755  16.671   3.152  0.00  0.00    +0.000 HD
BRANCH  77  80
ATOM     80  C   UNL A   1      49.611  15.131   3.950  0.00  0.00    +0.000 C 
BRANCH  80  81
ATOM     81  C   UNL A   1      50.457  15.492   5.147  0.00  0.00    +0.000 A 
ATOM     82  C   UNL A   1      50.022  16.590   5.987  0.00  0.00    +0.000 A 
ATOM     83  C   UNL A   1      50.799  17.021   6.990  0.00  0.00    +0.000 A 
ATOM     84  N   UNL A   1      52.009  16.421   7.274  0.00  0.00    +0.000 N 
ATOM     85  C   UNL A   1      52.498  15.355   6.541  0.00  0.00    +0.000 A 
ATOM     86  O   UNL A   1      53.554  14.782   6.780  0.00  0.00    +0.000 OA
ATOM     87  C   UNL A   1      51.637  14.900   5.409  0.00  0.00    +0.000 A 
BRANCH  84  88
ATOM     88  C   UNL A   1      52.879  16.943   8.290  0.00  0.00    +0.000 C 
ATOM     89  F   UNL A   1      52.981  18.294   8.156  0.00  0.00    +0.000 F 
ATOM     90  F   UNL A   1      52.385  16.721   9.536  0.00  0.00    +0.000 F 
ENDBRANCH  84  88
ENDBRANCH  80  81
ENDBRANCH  77  80
ENDBRANCH  75  78
ENDBRANCH  74  75
ENDBRANCH  73  74
ENDBRANCH  72  73
ENDBRANCH  71  72
ENDBRANCH  70  71
ENDBRANCH  66  70
ENDBRANCH  60  67
ENDBRANCH   1  63
TORSDOF 15
ENDMDL
MODEL 5
REMARK VINA RESULT:      -9.9     42.954     46.233
REMARK  Name = 
REMARK  15 active torsions:
REMARK  status: ('A' for Active; 'I' for Inactive)
REMARK    1  A    between atoms: C_2  and  C_3
REMARK    2  A    between atoms: C_3  and  C_4
REMARK    3  A    between atoms: N_7  and  C_8
REMARK    4  A    between atoms: N_14  and  C_15
REMARK    5  A    between atoms: C_15  and  C_16
REMARK    6  A    between atoms: C_16  and  C_17
REMARK    7  A    between atoms: C_17  and  C_18
REMARK    8  A    between atoms: C_18  and  C_19
REMARK    9  A    between atoms: C_19  and  C_20
REMARK   10  A    between atoms: C_20  and  N_21
REMARK   11  A    between atoms: C_22  and  C_24
REMARK   12  A    between atoms: C_27  and  C_28
REMARK   13  A    between atoms: C_32  and  C_33
REMARK   14  A    between atoms: C_49  and  C_50
REMARK   15  A    between atoms: C_64  and  C_65
REMARK                            x       y       z     vdW  Elec       q    Type
REMARK                         _______ _______ _______ _____ _____    ______ ____
ROOT
ATOM      1  C   UNL A   1      25.892  35.907  45.242  0.00  0.00    +0.000 C 
ATOM      2  C   UNL A   1      25.703  37.033  46.205  0.00  0.00    +0.000 C 
ATOM      3  N   UNL A   1      26.568  37.934  46.589  0.00  0.00    +0.000 NA
ATOM      4  C   UNL A   1      25.892  38.739  47.488  0.00  0.00    +0.000 C 
ATOM      5  C   UNL A   1      26.370  39.789  48.190  0.00  0.00    +0.000 C 
ATOM      6  C   UNL A   1      27.717  40.278  48.103  0.00  0.00    +0.000 A 
ATOM      7  C   UNL A   1      28.291  41.317  48.814  0.00  0.00    +0.000 A 
ATOM      8  C   UNL A   1      29.602  41.488  48.358  0.00  0.00    +0.000 A 
ATOM      9  C   UNL A   1      29.862  40.524  47.399  0.00  0.00    +0.000 A 
ATOM     10  N   UNL A   1      28.696  39.778  47.249  0.00  0.00    +0.000 N 
ATOM     11  C   UNL A   1      31.080  40.317  46.666  0.00  0.00    +0.000 C 
ATOM     12  C   UNL A   1      31.261  39.333  45.758  0.00  0.00    +0.000 C 
ATOM     13  N   UNL A   1      30.359  38.359  45.367  0.00  0.00    +0.000 NA
ATOM     14  C   UNL A   1      30.983  37.644  44.463  0.00  0.00    +0.000 C 
ATOM     15  C   UNL A   1      30.492  36.452  43.714  0.00  0.00    +0.000 C 
ATOM     16  C   UNL A   1      29.235  36.016  43.913  0.00  0.00    +0.000 A 
ATOM     17  C   UNL A   1      28.653  34.848  43.258  0.00  0.00    +0.000 A 
ATOM     18  C   UNL A   1      27.383  34.706  43.666  0.00  0.00    +0.000 A 
ATOM     19  C   UNL A   1      27.075  35.765  44.623  0.00  0.00    +0.000 A 
ATOM     20  N   UNL A   1      28.231  36.503  44.714  0.00  0.00    +0.000 N 
ATOM     21  C   UNL A   1      32.353  38.087  44.176  0.00  0.00    +0.000 C 
ATOM     22  C   UNL A   1      32.476  39.116  45.004  0.00  0.00    +0.000 C 
ATOM     23  C   UNL A   1      24.537  38.240  47.574  0.00  0.00    +0.000 C 
ATOM     24  C   UNL A   1      24.374  37.166  46.815  0.00  0.00    +0.000 C 
ATOM     25  H   UNL A   1      28.574  38.992  46.605  0.00  0.00    +0.000 HD
ATOM     26  H   UNL A   1      28.340  37.315  45.329  0.00  0.00    +0.000 HD
ENDROOT
BRANCH   5  27
ATOM     27  C   UNL A   1      25.420  40.474  49.120  0.00  0.00    +0.000 A 
ATOM     28  C   UNL A   1      24.655  41.568  48.692  0.00  0.00    +0.000 A 
ATOM     29  F   UNL A   1      24.784  42.031  47.440  0.00  0.00    +0.000 F 
ATOM     30  C   UNL A   1      23.770  42.202  49.558  0.00  0.00    +0.000 A 
ATOM     31  F   UNL A   1      23.068  43.265  49.140  0.00  0.00    +0.000 F 
ATOM     32  C   UNL A   1      23.622  41.745  50.861  0.00  0.00    +0.000 A 
ATOM     33  F   UNL A   1      22.781  42.368  51.698  0.00  0.00    +0.000 F 
ATOM     34  C   UNL A   1      24.364  40.659  51.300  0.00  0.00    +0.000 A 
ATOM     35  F   UNL A   1      24.229  40.224  52.561  0.00  0.00    +0.000 F 
ATOM     36  C   UNL A   1      25.261  40.029  50.440  0.00  0.00    +0.000 A 
ATOM     37  F   UNL A   1      25.990  39.001  50.897  0.00  0.00    +0.000 F 
ENDBRANCH   5  27
BRANCH  11  38
ATOM     38  C   UNL A   1      32.236  41.237  46.910  0.00  0.00    +0.000 A 
ATOM     39  C   UNL A   1      32.227  42.554  46.430  0.00  0.00    +0.000 A 
ATOM     40  F   UNL A   1      31.168  43.012  45.745  0.00  0.00    +0.000 F 
ATOM     41  C   UNL A   1      33.315  43.399  46.636  0.00  0.00    +0.000 A 
ATOM     42  F   UNL A   1      33.298  44.644  46.141  0.00  0.00    +0.000 F 
ATOM     43  C   UNL A   1      34.426  42.950  47.339  0.00  0.00    +0.000 A 
ATOM     44  F   UNL A   1      35.477  43.762  47.524  0.00  0.00    +0.000 F 
ATOM     45  C   UNL A   1      34.446  41.655  47.837  0.00  0.00    +0.000 A 
ATOM     46  F   UNL A   1      35.518  41.218  48.514  0.00  0.00    +0.000 F 
ATOM     47  C   UNL A   1      33.363  40.806  47.625  0.00  0.00    +0.000 A 
ATOM     48  F   UNL A   1      33.416  39.552  48.100  0.00  0.00    +0.000 F 
ENDBRANCH  11  38
BRANCH  15  49
ATOM     49  C   UNL A   1      31.363  35.730  42.761  0.00  0.00    +0.000 A 
ATOM     50  C   UNL A   1      31.423  36.102  41.413  0.00  0.00    +0.000 A 
ATOM     51  F   UNL A   1      30.759  37.185  40.986  0.00  0.00    +0.000 F 
ATOM     52  C   UNL A   1      32.163  35.354  40.499  0.00  0.00    +0.000 A 
ATOM     53  F   UNL A   1      32.194  35.716  39.209  0.00  0.00    +0.000 F 
ATOM     54  C   UNL A   1      32.858  34.231  40.923  0.00  0.00    +0.000 A 
ATOM     55  F   UNL A   1      33.562  33.506  40.040  0.00  0.00    +0.000 F 
ATOM     56  C   UNL A   1      32.829  33.861  42.260  0.00  0.00    +0.000 A 
ATOM     57  F   UNL A   1      33.511  32.786  42.677  0.00  0.00    +0.000 F 
ATOM     58  C   UNL A   1      32.088  34.607  43.175  0.00  0.00    +0.000 A 
ATOM     59  F   UNL A   1      32.060  34.237  44.463  0.00  0.00    +0.000 F 
ENDBRANCH  15  49
BRANCH   1  63
ATOM     60  C   UNL A   1      22.578  33.265  44.665  0.00  0.00    +0.000 A 
ATOM     61  C   UNL A   1      23.685  32.844  45.413  0.00  0.00    +0.000 A 
ATOM     62  C   UNL A   1      24.785  33.692  45.570  0.00  0.00    +0.000 A 
ATOM     63  C   UNL A   1      24.785  34.963  44.976  0.00  0.00    +0.000 A 
ATOM     64  C   UNL A   1      23.706  35.352  44.173  0.00  0.00    +0.000 A 
ATOM     65  C   UNL A   1      22.604  34.506  44.018  0.00  0.00    +0.000 A 
BRANCH  60  67
ATOM     66  N   UNL A   1      20.353  32.736  45.488  0.00  0.00    +0.000 N 
ATOM     67  C   UNL A   1      21.336  32.458  44.549  0.00  0.00    +0.000 C 
ATOM     68  O   UNL A   1      21.238  31.667  43.616  0.00  0.00    +0.000 OA
ATOM     69  H   UNL A   1      20.511  33.454  46.188  0.00  0.00    +0.000 HD
BRANCH  66  70
ATOM     70  C   UNL A   1      19.034  32.115  45.459  0.00  0.00    +0.000 C 
BRANCH  70  71
ATOM     71  C   UNL A   1      18.078  32.869  44.542  0.00  0.00    +0.000 C 
BRANCH  71  72
ATOM     72  C   UNL A   1      17.731  32.035  43.306  0.00  0.00    +0.000 C 
BRANCH  72  73
ATOM     73  C   UNL A   1      18.003  30.548  43.538  0.00  0.00    +0.000 C 
BRANCH  73  74
ATOM     74  C   UNL A   1      16.793  29.682  43.175  0.00  0.00    +0.000 C 
BRANCH  74  75
ATOM     75  C   UNL A   1      16.862  28.329  43.883  0.00  0.00    +0.000 C 
BRANCH  75  78
ATOM     76  O   UNL A   1      16.612  25.509  44.137  0.00  0.00    +0.000 OA
ATOM     77  C   UNL A   1      15.622  26.184  43.867  0.00  0.00    +0.000 C 
ATOM     78  N   UNL A   1      15.650  27.552  43.715  0.00  0.00    +0.000 N 
ATOM     79  H   UNL A   1      14.780  28.045  43.575  0.00  0.00    +0.000 HD
BRANCH  77  80
ATOM     80  C   UNL A   1      14.235  25.566  43.681  0.00  0.00    +0.000 C 
BRANCH  80  81
ATOM     81  C   UNL A   1      14.152  24.581  42.541  0.00  0.00    +0.000 A 
ATOM     82  C   UNL A   1      14.200  25.095  41.186  0.00  0.00    +0.000 A 
ATOM     83  C   UNL A   1      14.012  24.272  40.145  0.00  0.00    +0.000 A 
ATOM     84  N   UNL A   1      13.802  22.920  40.325  0.00  0.00    +0.000 N 
ATOM     85  C   UNL A   1      13.760  22.335  41.577  0.00  0.00    +0.000 A 
ATOM     86  O   UNL A   1      13.602  21.136  41.772  0.00  0.00    +0.000 OA
ATOM     87  C   UNL A   1      13.943  23.265  42.731  0.00  0.00    +0.000 A 
BRANCH  84  88
ATOM     88  C   UNL A   1      13.512  22.058  39.213  0.00  0.00    +0.000 C 
ATOM     89  F   UNL A   1      12.164  21.935  39.069  0.00  0.00    +0.000 F 
ATOM     90  F   UNL A   1      13.974  22.574  38.044  0.00  0.00    +0.000 F 
ENDBRANCH  84  88
ENDBRANCH  80  81
ENDBRANCH  77  80
ENDBRANCH  75  78
ENDBRANCH  74  75
ENDBRANCH  73  74
ENDBRANCH  72  73
ENDBRANCH  71  72
ENDBRANCH  70  71
ENDBRANCH  66  70
ENDBRANCH  60  67
ENDBRANCH   1  63
TORSDOF 15
ENDMDL
MODEL 6
REMARK VINA RESULT:      -9.9     65.365     70.632
REMARK  Name = 
REMARK  15 active torsions:
REMARK  status: ('A' for Active; 'I' for Inactive)
REMARK    1  A    between atoms: C_2  and  C_3
REMARK    2  A    between atoms: C_3  and  C_4
REMARK    3  A    between atoms: N_7  and  C_8
REMARK    4  A    between atoms: N_14  and  C_15
REMARK    5  A    between atoms: C_15  and  C_16
REMARK    6  A    between atoms: C_16  and  C_17
REMARK    7  A    between atoms: C_17  and  C_18
REMARK    8  A    between atoms: C_18  and  C_19
REMARK    9  A    between atoms: C_19  and  C_20
REMARK   10  A    between atoms: C_20  and  N_21
REMARK   11  A    between atoms: C_22  and  C_24
REMARK   12  A    between atoms: C_27  and  C_28
REMARK   13  A    between atoms: C_32  and  C_33
REMARK   14  A    between atoms: C_49  and  C_50
REMARK   15  A    between atoms: C_64  and  C_65
REMARK                            x       y       z     vdW  Elec       q    Type
REMARK                         _______ _______ _______ _____ _____    ______ ____
ROOT
ATOM      1  C   UNL A   1      28.989 -14.097  30.857  0.00  0.00    +0.000 C 
ATOM      2  C   UNL A   1      28.769 -14.218  32.329  0.00  0.00    +0.000 C 
ATOM      3  N   UNL A   1      27.803 -13.721  33.055  0.00  0.00    +0.000 NA
ATOM      4  C   UNL A   1      28.069 -14.121  34.352  0.00  0.00    +0.000 C 
ATOM      5  C   UNL A   1      27.377 -13.826  35.474  0.00  0.00    +0.000 C 
ATOM      6  C   UNL A   1      26.187 -13.024  35.507  0.00  0.00    +0.000 A 
ATOM      7  C   UNL A   1      25.447 -12.646  36.613  0.00  0.00    +0.000 A 
ATOM      8  C   UNL A   1      24.333 -11.927  36.170  0.00  0.00    +0.000 A 
ATOM      9  C   UNL A   1      24.404 -11.814  34.792  0.00  0.00    +0.000 A 
ATOM     10  N   UNL A   1      25.552 -12.489  34.389  0.00  0.00    +0.000 N 
ATOM     11  C   UNL A   1      23.478 -11.152  33.915  0.00  0.00    +0.000 C 
ATOM     12  C   UNL A   1      23.633 -11.066  32.575  0.00  0.00    +0.000 C 
ATOM     13  N   UNL A   1      24.667 -11.565  31.803  0.00  0.00    +0.000 NA
ATOM     14  C   UNL A   1      24.372 -11.243  30.568  0.00  0.00    +0.000 C 
ATOM     15  C   UNL A   1      25.145 -11.515  29.323  0.00  0.00    +0.000 C 
ATOM     16  C   UNL A   1      26.293 -12.213  29.394  0.00  0.00    +0.000 A 
ATOM     17  C   UNL A   1      27.146 -12.519  28.250  0.00  0.00    +0.000 A 
ATOM     18  C   UNL A   1      28.196 -13.241  28.668  0.00  0.00    +0.000 A 
ATOM     19  C   UNL A   1      28.092 -13.431  30.112  0.00  0.00    +0.000 A 
ATOM     20  N   UNL A   1      26.929 -12.788  30.467  0.00  0.00    +0.000 N 
ATOM     21  C   UNL A   1      23.113 -10.504  30.416  0.00  0.00    +0.000 C 
ATOM     22  C   UNL A   1      22.707 -10.412  31.676  0.00  0.00    +0.000 C 
ATOM     23  C   UNL A   1      29.270 -14.925  34.314  0.00  0.00    +0.000 C 
ATOM     24  C   UNL A   1      29.759 -14.996  33.084  0.00  0.00    +0.000 C 
ATOM     25  H   UNL A   1      25.874 -12.586  33.423  0.00  0.00    +0.000 HD
ATOM     26  H   UNL A   1      26.586 -12.726  31.430  0.00  0.00    +0.000 HD
ENDROOT
BRANCH   5  27
ATOM     27  C   UNL A   1      27.904 -14.375  36.762  0.00  0.00    +0.000 A 
ATOM     28  C   UNL A   1      28.916 -13.709  37.468  0.00  0.00    +0.000 A 
ATOM     29  F   UNL A   1      29.443 -12.576  36.982  0.00  0.00    +0.000 F 
ATOM     30  C   UNL A   1      29.403 -14.219  38.666  0.00  0.00    +0.000 A 
ATOM     31  F   UNL A   1      30.391 -13.584  39.313  0.00  0.00    +0.000 F 
ATOM     32  C   UNL A   1      28.879 -15.394  39.188  0.00  0.00    +0.000 A 
ATOM     33  F   UNL A   1      29.361 -15.892  40.335  0.00  0.00    +0.000 F 
ATOM     34  C   UNL A   1      27.871 -16.063  38.508  0.00  0.00    +0.000 A 
ATOM     35  F   UNL A   1      27.372 -17.203  39.007  0.00  0.00    +0.000 F 
ATOM     36  C   UNL A   1      27.389 -15.561  37.301  0.00  0.00    +0.000 A 
ATOM     37  F   UNL A   1      26.438 -16.243  36.647  0.00  0.00    +0.000 F 
ENDBRANCH   5  27
BRANCH  11  38
ATOM     38  C   UNL A   1      22.261 -10.506  34.501  0.00  0.00    +0.000 A 
ATOM     39  C   UNL A   1      21.017 -11.152  34.475  0.00  0.00    +0.000 A 
ATOM     40  F   UNL A   1      20.903 -12.371  33.927  0.00  0.00    +0.000 F 
ATOM     41  C   UNL A   1      19.880 -10.537  34.998  0.00  0.00    +0.000 A 
ATOM     42  F   UNL A   1      18.696 -11.159  34.935  0.00  0.00    +0.000 F 
ATOM     43  C   UNL A   1      19.969  -9.275  35.570  0.00  0.00    +0.000 A 
ATOM     44  F   UNL A   1      18.870  -8.682  36.060  0.00  0.00    +0.000 F 
ATOM     45  C   UNL A   1      21.195  -8.628  35.620  0.00  0.00    +0.000 A 
ATOM     46  F   UNL A   1      21.283  -7.407  36.169  0.00  0.00    +0.000 F 
ATOM     47  C   UNL A   1      22.330  -9.235  35.090  0.00  0.00    +0.000 A 
ATOM     48  F   UNL A   1      23.500  -8.580  35.134  0.00  0.00    +0.000 F 
ENDBRANCH  11  38
BRANCH  15  49
ATOM     49  C   UNL A   1      24.682 -11.023  28.007  0.00  0.00    +0.000 A 
ATOM     50  C   UNL A   1      23.762 -11.754  27.246  0.00  0.00    +0.000 A 
ATOM     51  F   UNL A   1      23.212 -12.869  27.748  0.00  0.00    +0.000 F 
ATOM     52  C   UNL A   1      23.408 -11.340  25.963  0.00  0.00    +0.000 A 
ATOM     53  F   UNL A   1      22.538 -12.062  25.244  0.00  0.00    +0.000 F 
ATOM     54  C   UNL A   1      23.965 -10.187  25.428  0.00  0.00    +0.000 A 
ATOM     55  F   UNL A   1      23.633  -9.796  24.189  0.00  0.00    +0.000 F 
ATOM     56  C   UNL A   1      24.862  -9.438  26.177  0.00  0.00    +0.000 A 
ATOM     57  F   UNL A   1      25.390  -8.316  25.670  0.00  0.00    +0.000 F 
ATOM     58  C   UNL A   1      25.216  -9.852  27.459  0.00  0.00    +0.000 A 
ATOM     59  F   UNL A   1      26.089  -9.126  28.172  0.00  0.00    +0.000 F 
ENDBRANCH  15  49
BRANCH   1  63
ATOM     60  C   UNL A   1      32.370 -15.762  28.836  0.00  0.00    +0.000 A 
ATOM     61  C   UNL A   1      31.207 -16.527  28.998  0.00  0.00    +0.000 A 
ATOM     62  C   UNL A   1      30.116 -15.998  29.693  0.00  0.00    +0.000 A 
ATOM     63  C   UNL A   1      30.183 -14.704  30.231  0.00  0.00    +0.000 A 
ATOM     64  C   UNL A   1      31.372 -13.971  30.124  0.00  0.00    +0.000 A 
ATOM     65  C   UNL A   1      32.462 -14.498  29.428  0.00  0.00    +0.000 A 
BRANCH  60  67
ATOM     66  N   UNL A   1      33.535 -15.785  26.702  0.00  0.00    +0.000 N 
ATOM     67  C   UNL A   1      33.523 -16.223  28.019  0.00  0.00    +0.000 C 
ATOM     68  O   UNL A   1      34.398 -16.887  28.565  0.00  0.00    +0.000 OA
ATOM     69  H   UNL A   1      32.788 -15.187  26.361  0.00  0.00    +0.000 HD
BRANCH  66  70
ATOM     70  C   UNL A   1      34.641 -16.053  25.789  0.00  0.00    +0.000 C 
BRANCH  70  71
ATOM     71  C   UNL A   1      35.349 -14.769  25.373  0.00  0.00    +0.000 C 
BRANCH  71  72
ATOM     72  C   UNL A   1      34.382 -13.583  25.371  0.00  0.00    +0.000 C 
BRANCH  72  73
ATOM     73  C   UNL A   1      34.937 -12.405  26.173  0.00  0.00    +0.000 C 
BRANCH  73  74
ATOM     74  C   UNL A   1      33.971 -11.957  27.273  0.00  0.00    +0.000 C 
BRANCH  74  75
ATOM     75  C   UNL A   1      33.089 -10.807  26.787  0.00  0.00    +0.000 C 
BRANCH  75  78
ATOM     76  O   UNL A   1      34.228  -8.203  26.822  0.00  0.00    +0.000 OA
ATOM     77  C   UNL A   1      33.478  -8.549  27.731  0.00  0.00    +0.000 C 
ATOM     78  N   UNL A   1      32.890  -9.792  27.802  0.00  0.00    +0.000 N 
ATOM     79  H   UNL A   1      32.220  -9.974  28.536  0.00  0.00    +0.000 HD
BRANCH  77  80
ATOM     80  C   UNL A   1      33.105  -7.618  28.887  0.00  0.00    +0.000 C 
BRANCH  80  81
ATOM     81  C   UNL A   1      31.706  -7.828  29.413  0.00  0.00    +0.000 A 
ATOM     82  C   UNL A   1      31.532  -8.673  30.578  0.00  0.00    +0.000 A 
ATOM     83  C   UNL A   1      30.302  -8.982  31.009  0.00  0.00    +0.000 A 
ATOM     84  N   UNL A   1      29.174  -8.486  30.386  0.00  0.00    +0.000 N 
ATOM     85  C   UNL A   1      29.240  -7.657  29.282  0.00  0.00    +0.000 A 
ATOM     86  O   UNL A   1      28.263  -7.178  28.720  0.00  0.00    +0.000 OA
ATOM     87  C   UNL A   1      30.615  -7.341  28.793  0.00  0.00    +0.000 A 
BRANCH  84  88
ATOM     88  C   UNL A   1      27.858  -8.892  30.795  0.00  0.00    +0.000 C 
ATOM     89  F   UNL A   1      27.917 -10.126  31.367  0.00  0.00    +0.000 F 
ATOM     90  F   UNL A   1      27.347  -8.059  31.739  0.00  0.00    +0.000 F 
ENDBRANCH  84  88
ENDBRANCH  80  81
ENDBRANCH  77  80
ENDBRANCH  75  78
ENDBRANCH  74  75
ENDBRANCH  73  74
ENDBRANCH  72  73
ENDBRANCH  71  72
ENDBRANCH  70  71
ENDBRANCH  66  70
ENDBRANCH  60  67
ENDBRANCH   1  63
TORSDOF 15
ENDMDL
MODEL 7
REMARK VINA RESULT:      -9.7     43.298     46.536
REMARK  Name = 
REMARK  15 active torsions:
REMARK  status: ('A' for Active; 'I' for Inactive)
REMARK    1  A    between atoms: C_2  and  C_3
REMARK    2  A    between atoms: C_3  and  C_4
REMARK    3  A    between atoms: N_7  and  C_8
REMARK    4  A    between atoms: N_14  and  C_15
REMARK    5  A    between atoms: C_15  and  C_16
REMARK    6  A    between atoms: C_16  and  C_17
REMARK    7  A    between atoms: C_17  and  C_18
REMARK    8  A    between atoms: C_18  and  C_19
REMARK    9  A    between atoms: C_19  and  C_20
REMARK   10  A    between atoms: C_20  and  N_21
REMARK   11  A    between atoms: C_22  and  C_24
REMARK   12  A    between atoms: C_27  and  C_28
REMARK   13  A    between atoms: C_32  and  C_33
REMARK   14  A    between atoms: C_49  and  C_50
REMARK   15  A    between atoms: C_64  and  C_65
REMARK                            x       y       z     vdW  Elec       q    Type
REMARK                         _______ _______ _______ _____ _____    ______ ____
ROOT
ATOM      1  C   UNL A   1      25.784  35.333  45.465  0.00  0.00    +0.000 C 
ATOM      2  C   UNL A   1      25.504  36.453  46.411  0.00  0.00    +0.000 C 
ATOM      3  N   UNL A   1      26.290  37.430  46.779  0.00  0.00    +0.000 NA
ATOM      4  C   UNL A   1      25.551  38.189  47.668  0.00  0.00    +0.000 C 
ATOM      5  C   UNL A   1      25.940  39.286  48.352  0.00  0.00    +0.000 C 
ATOM      6  C   UNL A   1      27.241  39.885  48.254  0.00  0.00    +0.000 A 
ATOM      7  C   UNL A   1      27.727  40.980  48.947  0.00  0.00    +0.000 A 
ATOM      8  C   UNL A   1      29.018  41.252  48.485  0.00  0.00    +0.000 A 
ATOM      9  C   UNL A   1      29.356  40.299  47.540  0.00  0.00    +0.000 A 
ATOM     10  N   UNL A   1      28.257  39.455  47.405  0.00  0.00    +0.000 N 
ATOM     11  C   UNL A   1      30.586  40.184  46.807  0.00  0.00    +0.000 C 
ATOM     12  C   UNL A   1      30.848  39.204  45.913  0.00  0.00    +0.000 C 
ATOM     13  N   UNL A   1      30.031  38.152  45.540  0.00  0.00    +0.000 NA
ATOM     14  C   UNL A   1      30.710  37.477  44.646  0.00  0.00    +0.000 C 
ATOM     15  C   UNL A   1      30.320  36.237  43.917  0.00  0.00    +0.000 C 
ATOM     16  C   UNL A   1      29.105  35.700  44.125  0.00  0.00    +0.000 A 
ATOM     17  C   UNL A   1      28.621  34.478  43.490  0.00  0.00    +0.000 A 
ATOM     18  C   UNL A   1      27.369  34.236  43.904  0.00  0.00    +0.000 A 
ATOM     19  C   UNL A   1      26.974  35.280  44.846  0.00  0.00    +0.000 A 
ATOM     20  N   UNL A   1      28.065  36.114  44.922  0.00  0.00    +0.000 N 
ATOM     21  C   UNL A   1      32.038  38.029  44.348  0.00  0.00    +0.000 C 
ATOM     22  C   UNL A   1      32.076  39.078  45.160  0.00  0.00    +0.000 C 
ATOM     23  C   UNL A   1      24.243  37.579  47.765  0.00  0.00    +0.000 C 
ATOM     24  C   UNL A   1      24.169  36.484  47.023  0.00  0.00    +0.000 C 
ATOM     25  H   UNL A   1      28.200  38.652  46.774  0.00  0.00    +0.000 HD
ATOM     26  H   UNL A   1      28.106  36.941  45.524  0.00  0.00    +0.000 HD
ENDROOT
BRANCH   5  27
ATOM     27  C   UNL A   1      24.937  39.904  49.275  0.00  0.00    +0.000 A 
ATOM     28  C   UNL A   1      24.830  39.482  50.607  0.00  0.00    +0.000 A 
ATOM     29  F   UNL A   1      25.614  38.496  51.068  0.00  0.00    +0.000 F 
ATOM     30  C   UNL A   1      23.898  40.059  51.464  0.00  0.00    +0.000 A 
ATOM     31  F   UNL A   1      23.789  39.622  52.727  0.00  0.00    +0.000 F 
ATOM     32  C   UNL A   1      23.070  41.076  51.011  0.00  0.00    +0.000 A 
ATOM     33  F   UNL A   1      22.163  41.619  51.834  0.00  0.00    +0.000 F 
ATOM     34  C   UNL A   1      23.168  41.513  49.698  0.00  0.00    +0.000 A 
ATOM     35  F   UNL A   1      22.361  42.489  49.257  0.00  0.00    +0.000 F 
ATOM     36  C   UNL A   1      24.091  40.929  48.833  0.00  0.00    +0.000 A 
ATOM     37  F   UNL A   1      24.144  41.347  47.560  0.00  0.00    +0.000 F 
ENDBRANCH   5  27
BRANCH  11  38
ATOM     38  C   UNL A   1      31.662  41.201  47.033  0.00  0.00    +0.000 A 
ATOM     39  C   UNL A   1      32.799  40.894  47.793  0.00  0.00    +0.000 A 
ATOM     40  F   UNL A   1      32.941  39.671  48.326  0.00  0.00    +0.000 F 
ATOM     41  C   UNL A   1      33.786  41.850  48.024  0.00  0.00    +0.000 A 
ATOM     42  F   UNL A   1      34.849  41.545  48.779  0.00  0.00    +0.000 F 
ATOM     43  C   UNL A   1      33.663  43.125  47.485  0.00  0.00    +0.000 A 
ATOM     44  F   UNL A   1      34.609  44.047  47.720  0.00  0.00    +0.000 F 
ATOM     45  C   UNL A   1      32.553  43.442  46.715  0.00  0.00    +0.000 A 
ATOM     46  F   UNL A   1      32.431  44.672  46.197  0.00  0.00    +0.000 F 
ATOM     47  C   UNL A   1      31.561  42.491  46.491  0.00  0.00    +0.000 A 
ATOM     48  F   UNL A   1      30.489  42.828  45.759  0.00  0.00    +0.000 F 
ENDBRANCH  11  38
BRANCH  15  49
ATOM     49  C   UNL A   1      31.248  35.576  42.972  0.00  0.00    +0.000 A 
ATOM     50  C   UNL A   1      31.343  35.996  41.641  0.00  0.00    +0.000 A 
ATOM     51  F   UNL A   1      30.661  37.073  41.227  0.00  0.00    +0.000 F 
ATOM     52  C   UNL A   1      32.140  35.304  40.729  0.00  0.00    +0.000 A 
ATOM     53  F   UNL A   1      32.205  35.712  39.455  0.00  0.00    +0.000 F 
ATOM     54  C   UNL A   1      32.854  34.189  41.141  0.00  0.00    +0.000 A 
ATOM     55  F   UNL A   1      33.611  33.516  40.260  0.00  0.00    +0.000 F 
ATOM     56  C   UNL A   1      32.789  33.772  42.463  0.00  0.00    +0.000 A 
ATOM     57  F   UNL A   1      33.490  32.703  42.867  0.00  0.00    +0.000 F 
ATOM     58  C   UNL A   1      31.993  34.462  43.374  0.00  0.00    +0.000 A 
ATOM     59  F   UNL A   1      31.930  34.046  44.647  0.00  0.00    +0.000 F 
ENDBRANCH  15  49
BRANCH   1  63
ATOM     60  C   UNL A   1      22.682  32.442  44.907  0.00  0.00    +0.000 A 
ATOM     61  C   UNL A   1      23.693  32.208  45.848  0.00  0.00    +0.000 A 
ATOM     62  C   UNL A   1      24.729  33.133  46.004  0.00  0.00    +0.000 A 
ATOM     63  C   UNL A   1      24.761  34.294  45.217  0.00  0.00    +0.000 A 
ATOM     64  C   UNL A   1      23.785  34.490  44.232  0.00  0.00    +0.000 A 
ATOM     65  C   UNL A   1      22.748  33.567  44.077  0.00  0.00    +0.000 A 
BRANCH  60  67
ATOM     66  N   UNL A   1      20.279  32.127  45.099  0.00  0.00    +0.000 N 
ATOM     67  C   UNL A   1      21.498  31.555  44.766  0.00  0.00    +0.000 C 
ATOM     68  O   UNL A   1      21.664  30.426  44.315  0.00  0.00    +0.000 OA
ATOM     69  H   UNL A   1      20.242  33.094  45.409  0.00  0.00    +0.000 HD
BRANCH  66  70
ATOM     70  C   UNL A   1      19.006  31.437  44.922  0.00  0.00    +0.000 C 
BRANCH  70  71
ATOM     71  C   UNL A   1      18.348  31.805  43.597  0.00  0.00    +0.000 C 
BRANCH  71  72
ATOM     72  C   UNL A   1      17.465  30.664  43.087  0.00  0.00    +0.000 C 
BRANCH  72  73
ATOM     73  C   UNL A   1      17.701  29.376  43.877  0.00  0.00    +0.000 C 
BRANCH  73  74
ATOM     74  C   UNL A   1      16.406  28.581  44.073  0.00  0.00    +0.000 C 
BRANCH  74  75
ATOM     75  C   UNL A   1      16.514  27.200  43.426  0.00  0.00    +0.000 C 
BRANCH  75  78
ATOM     76  O   UNL A   1      15.549  24.542  43.144  0.00  0.00    +0.000 OA
ATOM     77  C   UNL A   1      14.892  25.476  42.695  0.00  0.00    +0.000 C 
ATOM     78  N   UNL A   1      15.285  26.793  42.776  0.00  0.00    +0.000 N 
ATOM     79  H   UNL A   1      14.651  27.512  42.456  0.00  0.00    +0.000 HD
BRANCH  77  80
ATOM     80  C   UNL A   1      13.544  25.272  41.999  0.00  0.00    +0.000 C 
BRANCH  80  81
ATOM     81  C   UNL A   1      13.254  23.835  41.641  0.00  0.00    +0.000 A 
ATOM     82  C   UNL A   1      12.673  22.979  42.657  0.00  0.00    +0.000 A 
ATOM     83  C   UNL A   1      12.507  21.670  42.422  0.00  0.00    +0.000 A 
ATOM     84  N   UNL A   1      12.850  21.106  41.209  0.00  0.00    +0.000 N 
ATOM     85  C   UNL A   1      13.392  21.845  40.174  0.00  0.00    +0.000 A 
ATOM     86  O   UNL A   1      13.683  21.384  39.077  0.00  0.00    +0.000 OA
ATOM     87  C   UNL A   1      13.598  23.297  40.455  0.00  0.00    +0.000 A 
BRANCH  84  88
ATOM     88  C   UNL A   1      12.755  19.689  40.995  0.00  0.00    +0.000 C 
ATOM     89  F   UNL A   1      13.866  19.076  41.488  0.00  0.00    +0.000 F 
ATOM     90  F   UNL A   1      11.698  19.151  41.657  0.00  0.00    +0.000 F 
ENDBRANCH  84  88
ENDBRANCH  80  81
ENDBRANCH  77  80
ENDBRANCH  75  78
ENDBRANCH  74  75
ENDBRANCH  73  74
ENDBRANCH  72  73
ENDBRANCH  71  72
ENDBRANCH  70  71
ENDBRANCH  66  70
ENDBRANCH  60  67
ENDBRANCH   1  63
TORSDOF 15
ENDMDL
MODEL 8
REMARK VINA RESULT:      -9.6     42.148     46.229
REMARK  Name = 
REMARK  15 active torsions:
REMARK  status: ('A' for Active; 'I' for Inactive)
REMARK    1  A    between atoms: C_2  and  C_3
REMARK    2  A    between atoms: C_3  and  C_4
REMARK    3  A    between atoms: N_7  and  C_8
REMARK    4  A    between atoms: N_14  and  C_15
REMARK    5  A    between atoms: C_15  and  C_16
REMARK    6  A    between atoms: C_16  and  C_17
REMARK    7  A    between atoms: C_17  and  C_18
REMARK    8  A    between atoms: C_18  and  C_19
REMARK    9  A    between atoms: C_19  and  C_20
REMARK   10  A    between atoms: C_20  and  N_21
REMARK   11  A    between atoms: C_22  and  C_24
REMARK   12  A    between atoms: C_27  and  C_28
REMARK   13  A    between atoms: C_32  and  C_33
REMARK   14  A    between atoms: C_49  and  C_50
REMARK   15  A    between atoms: C_64  and  C_65
REMARK                            x       y       z     vdW  Elec       q    Type
REMARK                         _______ _______ _______ _____ _____    ______ ____
ROOT
ATOM      1  C   UNL A   1      25.659  34.419  45.797  0.00  0.00    +0.000 C 
ATOM      2  C   UNL A   1      25.326  35.531  46.736  0.00  0.00    +0.000 C 
ATOM      3  N   UNL A   1      26.062  36.550  47.091  0.00  0.00    +0.000 NA
ATOM      4  C   UNL A   1      25.290  37.276  47.980  0.00  0.00    +0.000 C 
ATOM      5  C   UNL A   1      25.625  38.398  48.653  0.00  0.00    +0.000 C 
ATOM      6  C   UNL A   1      26.893  39.063  48.542  0.00  0.00    +0.000 A 
ATOM      7  C   UNL A   1      27.325  40.187  49.223  0.00  0.00    +0.000 A 
ATOM      8  C   UNL A   1      28.597  40.524  48.750  0.00  0.00    +0.000 A 
ATOM      9  C   UNL A   1      28.978  39.582  47.809  0.00  0.00    +0.000 A 
ATOM     10  N   UNL A   1      27.924  38.681  47.688  0.00  0.00    +0.000 N 
ATOM     11  C   UNL A   1      30.208  39.527  47.068  0.00  0.00    +0.000 C 
ATOM     12  C   UNL A   1      30.515  38.555  46.180  0.00  0.00    +0.000 C 
ATOM     13  N   UNL A   1      29.751  37.459  45.820  0.00  0.00    +0.000 NA
ATOM     14  C   UNL A   1      30.459  36.814  44.926  0.00  0.00    +0.000 C 
ATOM     15  C   UNL A   1      30.130  35.550  44.209  0.00  0.00    +0.000 C 
ATOM     16  C   UNL A   1      28.946  34.951  44.430  0.00  0.00    +0.000 A 
ATOM     17  C   UNL A   1      28.523  33.700  43.807  0.00  0.00    +0.000 A 
ATOM     18  C   UNL A   1      27.288  33.396  44.232  0.00  0.00    +0.000 A 
ATOM     19  C   UNL A   1      26.845  34.425  45.169  0.00  0.00    +0.000 A 
ATOM     20  N   UNL A   1      27.891  35.315  45.231  0.00  0.00    +0.000 N 
ATOM     21  C   UNL A   1      31.754  37.433  44.615  0.00  0.00    +0.000 C 
ATOM     22  C   UNL A   1      31.743  38.488  45.419  0.00  0.00    +0.000 C 
ATOM     23  C   UNL A   1      24.017  36.600  48.091  0.00  0.00    +0.000 C 
ATOM     24  C   UNL A   1      23.996  35.496  47.358  0.00  0.00    +0.000 C 
ATOM     25  H   UNL A   1      27.906  37.871  47.064  0.00  0.00    +0.000 HD
ATOM     26  H   UNL A   1      27.893  36.149  45.827  0.00  0.00    +0.000 HD
ENDROOT
BRANCH   5  27
ATOM     27  C   UNL A   1      24.598  38.968  49.579  0.00  0.00    +0.000 A 
ATOM     28  C   UNL A   1      24.539  38.571  50.922  0.00  0.00    +0.000 A 
ATOM     29  F   UNL A   1      25.394  37.651  51.391  0.00  0.00    +0.000 F 
ATOM     30  C   UNL A   1      23.585  39.105  51.781  0.00  0.00    +0.000 A 
ATOM     31  F   UNL A   1      23.524  38.692  53.056  0.00  0.00    +0.000 F 
ATOM     32  C   UNL A   1      22.684  40.054  51.320  0.00  0.00    +0.000 A 
ATOM     33  F   UNL A   1      21.755  40.555  52.146  0.00  0.00    +0.000 F 
ATOM     34  C   UNL A   1      22.732  40.466  49.996  0.00  0.00    +0.000 A 
ATOM     35  F   UNL A   1      21.855  41.376  49.547  0.00  0.00    +0.000 F 
ATOM     36  C   UNL A   1      23.678  39.925  49.128  0.00  0.00    +0.000 A 
ATOM     37  F   UNL A   1      23.685  40.315  47.846  0.00  0.00    +0.000 F 
ENDBRANCH   5  27
BRANCH  11  38
ATOM     38  C   UNL A   1      31.230  40.600  47.279  0.00  0.00    +0.000 A 
ATOM     39  C   UNL A   1      32.309  40.410  48.153  0.00  0.00    +0.000 A 
ATOM     40  F   UNL A   1      32.444  39.249  48.812  0.00  0.00    +0.000 F 
ATOM     41  C   UNL A   1      33.244  41.420  48.367  0.00  0.00    +0.000 A 
ATOM     42  F   UNL A   1      34.250  41.228  49.231  0.00  0.00    +0.000 F 
ATOM     43  C   UNL A   1      33.128  42.633  47.700  0.00  0.00    +0.000 A 
ATOM     44  F   UNL A   1      34.023  43.608  47.919  0.00  0.00    +0.000 F 
ATOM     45  C   UNL A   1      32.076  42.834  46.818  0.00  0.00    +0.000 A 
ATOM     46  F   UNL A   1      31.960  44.005  46.175  0.00  0.00    +0.000 F 
ATOM     47  C   UNL A   1      31.135  41.829  46.609  0.00  0.00    +0.000 A 
ATOM     48  F   UNL A   1      30.117  42.055  45.765  0.00  0.00    +0.000 F 
ENDBRANCH  11  38
BRANCH  15  49
ATOM     49  C   UNL A   1      31.085  34.931  43.263  0.00  0.00    +0.000 A 
ATOM     50  C   UNL A   1      31.916  33.878  43.661  0.00  0.00    +0.000 A 
ATOM     51  F   UNL A   1      31.790  33.350  44.887  0.00  0.00    +0.000 F 
ATOM     52  C   UNL A   1      32.886  33.368  42.799  0.00  0.00    +0.000 A 
ATOM     53  F   UNL A   1      33.684  32.372  43.205  0.00  0.00    +0.000 F 
ATOM     54  C   UNL A   1      33.029  33.900  41.526  0.00  0.00    +0.000 A 
ATOM     55  F   UNL A   1      33.970  33.417  40.700  0.00  0.00    +0.000 F 
ATOM     56  C   UNL A   1      32.198  34.929  41.106  0.00  0.00    +0.000 A 
ATOM     57  F   UNL A   1      32.324  35.436  39.872  0.00  0.00    +0.000 F 
ATOM     58  C   UNL A   1      31.230  35.440  41.968  0.00  0.00    +0.000 A 
ATOM     59  F   UNL A   1      30.437  36.439  41.555  0.00  0.00    +0.000 F 
ENDBRANCH  15  49
BRANCH   1  63
ATOM     60  C   UNL A   1      22.703  31.373  45.270  0.00  0.00    +0.000 A 
ATOM     61  C   UNL A   1      23.687  31.229  46.257  0.00  0.00    +0.000 A 
ATOM     62  C   UNL A   1      24.676  32.205  46.404  0.00  0.00    +0.000 A 
ATOM     63  C   UNL A   1      24.689  33.327  45.563  0.00  0.00    +0.000 A 
ATOM     64  C   UNL A   1      23.745  33.433  44.535  0.00  0.00    +0.000 A 
ATOM     65  C   UNL A   1      22.753  32.459  44.388  0.00  0.00    +0.000 A 
BRANCH  60  67
ATOM     66  N   UNL A   1      20.382  30.984  44.658  0.00  0.00    +0.000 N 
ATOM     67  C   UNL A   1      21.564  30.430  45.131  0.00  0.00    +0.000 C 
ATOM     68  O   UNL A   1      21.755  29.242  45.373  0.00  0.00    +0.000 OA
ATOM     69  H   UNL A   1      20.344  31.973  44.430  0.00  0.00    +0.000 HD
BRANCH  66  70
ATOM     70  C   UNL A   1      19.198  30.187  44.362  0.00  0.00    +0.000 C 
BRANCH  70  71
ATOM     71  C   UNL A   1      17.936  31.043  44.341  0.00  0.00    +0.000 C 
BRANCH  71  72
ATOM     72  C   UNL A   1      17.246  30.969  42.977  0.00  0.00    +0.000 C 
BRANCH  72  73
ATOM     73  C   UNL A   1      15.957  31.794  42.956  0.00  0.00    +0.000 C 
BRANCH  73  74
ATOM     74  C   UNL A   1      16.060  32.990  42.004  0.00  0.00    +0.000 C 
BRANCH  74  75
ATOM     75  C   UNL A   1      16.082  34.304  42.784  0.00  0.00    +0.000 C 
BRANCH  75  78
ATOM     76  O   UNL A   1      15.916  35.686  45.262  0.00  0.00    +0.000 OA
ATOM     77  C   UNL A   1      16.907  35.004  45.013  0.00  0.00    +0.000 C 
ATOM     78  N   UNL A   1      17.077  34.309  43.837  0.00  0.00    +0.000 N 
ATOM     79  H   UNL A   1      17.881  33.704  43.740  0.00  0.00    +0.000 HD
BRANCH  77  80
ATOM     80  C   UNL A   1      18.063  34.844  46.003  0.00  0.00    +0.000 C 
BRANCH  80  81
ATOM     81  C   UNL A   1      19.265  35.697  45.680  0.00  0.00    +0.000 A 
ATOM     82  C   UNL A   1      20.109  35.300  44.570  0.00  0.00    +0.000 A 
ATOM     83  C   UNL A   1      21.250  35.957  44.320  0.00  0.00    +0.000 A 
ATOM     84  N   UNL A   1      21.638  37.041  45.082  0.00  0.00    +0.000 N 
ATOM     85  C   UNL A   1      20.890  37.506  46.148  0.00  0.00    +0.000 A 
ATOM     86  O   UNL A   1      21.190  38.479  46.828  0.00  0.00    +0.000 OA
ATOM     87  C   UNL A   1      19.634  36.749  46.434  0.00  0.00    +0.000 A 
BRANCH  84  88
ATOM     88  C   UNL A   1      22.904  37.685  44.868  0.00  0.00    +0.000 C 
ATOM     89  F   UNL A   1      23.703  36.885  44.112  0.00  0.00    +0.000 F 
ATOM     90  F   UNL A   1      22.765  38.847  44.177  0.00  0.00    +0.000 F 
ENDBRANCH  84  88
ENDBRANCH  80  81
ENDBRANCH  77  80
ENDBRANCH  75  78
ENDBRANCH  74  75
ENDBRANCH  73  74
ENDBRANCH  72  73
ENDBRANCH  71  72
ENDBRANCH  70  71
ENDBRANCH  66  70
ENDBRANCH  60  67
ENDBRANCH   1  63
TORSDOF 15
ENDMDL
MODEL 9
REMARK VINA RESULT:      -9.6      1.051      2.033
REMARK  Name = 
REMARK  15 active torsions:
REMARK  status: ('A' for Active; 'I' for Inactive)
REMARK    1  A    between atoms: C_2  and  C_3
REMARK    2  A    between atoms: C_3  and  C_4
REMARK    3  A    between atoms: N_7  and  C_8
REMARK    4  A    between atoms: N_14  and  C_15
REMARK    5  A    between atoms: C_15  and  C_16
REMARK    6  A    between atoms: C_16  and  C_17
REMARK    7  A    between atoms: C_17  and  C_18
REMARK    8  A    between atoms: C_18  and  C_19
REMARK    9  A    between atoms: C_19  and  C_20
REMARK   10  A    between atoms: C_20  and  N_21
REMARK   11  A    between atoms: C_22  and  C_24
REMARK   12  A    between atoms: C_27  and  C_28
REMARK   13  A    between atoms: C_32  and  C_33
REMARK   14  A    between atoms: C_49  and  C_50
REMARK   15  A    between atoms: C_64  and  C_65
REMARK                            x       y       z     vdW  Elec       q    Type
REMARK                         _______ _______ _______ _____ _____    ______ ____
ROOT
ATOM      1  C   UNL A   1      13.652  53.865   5.434  0.00  0.00    +0.000 C 
ATOM      2  C   UNL A   1      13.255  52.426   5.492  0.00  0.00    +0.000 C 
ATOM      3  N   UNL A   1      13.576  51.456   4.678  0.00  0.00    +0.000 NA
ATOM      4  C   UNL A   1      12.949  50.329   5.177  0.00  0.00    +0.000 C 
ATOM      5  C   UNL A   1      12.946  49.080   4.663  0.00  0.00    +0.000 C 
ATOM      6  C   UNL A   1      13.638  48.693   3.466  0.00  0.00    +0.000 A 
ATOM      7  C   UNL A   1      13.652  47.451   2.856  0.00  0.00    +0.000 A 
ATOM      8  C   UNL A   1      14.512  47.513   1.755  0.00  0.00    +0.000 A 
ATOM      9  C   UNL A   1      14.996  48.806   1.649  0.00  0.00    +0.000 A 
ATOM     10  N   UNL A   1      14.450  49.530   2.706  0.00  0.00    +0.000 N 
ATOM     11  C   UNL A   1      15.902  49.328   0.665  0.00  0.00    +0.000 C 
ATOM     12  C   UNL A   1      16.310  50.616   0.617  0.00  0.00    +0.000 C 
ATOM     13  N   UNL A   1      15.953  51.654   1.459  0.00  0.00    +0.000 NA
ATOM     14  C   UNL A   1      16.606  52.703   1.023  0.00  0.00    +0.000 C 
ATOM     15  C   UNL A   1      16.585  54.099   1.544  0.00  0.00    +0.000 C 
ATOM     16  C   UNL A   1      15.847  54.390   2.631  0.00  0.00    +0.000 A 
ATOM     17  C   UNL A   1      15.728  55.721   3.216  0.00  0.00    +0.000 A 
ATOM     18  C   UNL A   1      14.934  55.656   4.295  0.00  0.00    +0.000 A 
ATOM     19  C   UNL A   1      14.477  54.279   4.460  0.00  0.00    +0.000 A 
ATOM     20  N   UNL A   1      15.067  53.588   3.428  0.00  0.00    +0.000 N 
ATOM     21  C   UNL A   1      17.456  52.446  -0.146  0.00  0.00    +0.000 C 
ATOM     22  C   UNL A   1      17.229  51.157  -0.361  0.00  0.00    +0.000 C 
ATOM     23  C   UNL A   1      12.250  50.725   6.379  0.00  0.00    +0.000 C 
ATOM     24  C   UNL A   1      12.388  52.023   6.607  0.00  0.00    +0.000 C 
ATOM     25  H   UNL A   1      14.625  50.519   2.899  0.00  0.00    +0.000 HD
ATOM     26  H   UNL A   1      14.924  52.588   3.259  0.00  0.00    +0.000 HD
ENDROOT
BRANCH   5  27
ATOM     27  C   UNL A   1      12.157  48.043   5.398  0.00  0.00    +0.000 A 
ATOM     28  C   UNL A   1      10.811  47.808   5.087  0.00  0.00    +0.000 A 
ATOM     29  F   UNL A   1      10.203  48.530   4.134  0.00  0.00    +0.000 F 
ATOM     30  C   UNL A   1      10.080  46.842   5.770  0.00  0.00    +0.000 A 
ATOM     31  F   UNL A   1       8.785  46.650   5.478  0.00  0.00    +0.000 F 
ATOM     32  C   UNL A   1      10.683  46.085   6.765  0.00  0.00    +0.000 A 
ATOM     33  F   UNL A   1       9.972  45.166   7.433  0.00  0.00    +0.000 F 
ATOM     34  C   UNL A   1      12.017  46.298   7.081  0.00  0.00    +0.000 A 
ATOM     35  F   UNL A   1      12.597  45.574   8.049  0.00  0.00    +0.000 F 
ATOM     36  C   UNL A   1      12.749  47.273   6.408  0.00  0.00    +0.000 A 
ATOM     37  F   UNL A   1      14.027  47.482   6.754  0.00  0.00    +0.000 F 
ENDBRANCH   5  27
BRANCH  11  38
ATOM     38  C   UNL A   1      16.440  48.407  -0.386  0.00  0.00    +0.000 A 
ATOM     39  C   UNL A   1      15.653  48.020  -1.480  0.00  0.00    +0.000 A 
ATOM     40  F   UNL A   1      14.399  48.482  -1.603  0.00  0.00    +0.000 F 
ATOM     41  C   UNL A   1      16.147  47.142  -2.442  0.00  0.00    +0.000 A 
ATOM     42  F   UNL A   1      15.367  46.761  -3.462  0.00  0.00    +0.000 F 
ATOM     43  C   UNL A   1      17.441  46.647  -2.339  0.00  0.00    +0.000 A 
ATOM     44  F   UNL A   1      17.908  45.792  -3.261  0.00  0.00    +0.000 F 
ATOM     45  C   UNL A   1      18.240  47.032  -1.272  0.00  0.00    +0.000 A 
ATOM     46  F   UNL A   1      19.489  46.554  -1.169  0.00  0.00    +0.000 F 
ATOM     47  C   UNL A   1      17.746  47.903  -0.305  0.00  0.00    +0.000 A 
ATOM     48  F   UNL A   1      18.533  48.244   0.727  0.00  0.00    +0.000 F 
ENDBRANCH  11  38
BRANCH  15  49
ATOM     49  C   UNL A   1      17.353  55.178   0.885  0.00  0.00    +0.000 A 
ATOM     50  C   UNL A   1      16.862  55.818  -0.259  0.00  0.00    +0.000 A 
ATOM     51  F   UNL A   1      15.638  55.524  -0.719  0.00  0.00    +0.000 F 
ATOM     52  C   UNL A   1      17.635  56.760  -0.937  0.00  0.00    +0.000 A 
ATOM     53  F   UNL A   1      17.155  57.349  -2.040  0.00  0.00    +0.000 F 
ATOM     54  C   UNL A   1      18.903  57.078  -0.474  0.00  0.00    +0.000 A 
ATOM     55  F   UNL A   1      19.651  57.976  -1.133  0.00  0.00    +0.000 F 
ATOM     56  C   UNL A   1      19.396  56.470   0.672  0.00  0.00    +0.000 A 
ATOM     57  F   UNL A   1      20.615  56.785   1.131  0.00  0.00    +0.000 F 
ATOM     58  C   UNL A   1      18.625  55.528   1.349  0.00  0.00    +0.000 A 
ATOM     59  F   UNL A   1      19.114  54.940   2.451  0.00  0.00    +0.000 F 
ENDBRANCH  15  49
BRANCH   1  63
ATOM     60  C   UNL A   1      12.040  56.444   8.441  0.00  0.00    +0.000 A 
ATOM     61  C   UNL A   1      11.399  56.332   7.200  0.00  0.00    +0.000 A 
ATOM     62  C   UNL A   1      11.946  55.520   6.203  0.00  0.00    +0.000 A 
ATOM     63  C   UNL A   1      13.138  54.819   6.441  0.00  0.00    +0.000 A 
ATOM     64  C   UNL A   1      13.809  54.987   7.658  0.00  0.00    +0.000 A 
ATOM     65  C   UNL A   1      13.262  55.796   8.657  0.00  0.00    +0.000 A 
BRANCH  60  67
ATOM     66  N   UNL A   1      11.074  56.441  10.673  0.00  0.00    +0.000 N 
ATOM     67  C   UNL A   1      11.457  57.203   9.578  0.00  0.00    +0.000 C 
ATOM     68  O   UNL A   1      11.414  58.427   9.503  0.00  0.00    +0.000 OA
ATOM     69  H   UNL A   1      11.205  55.433  10.658  0.00  0.00    +0.000 HD
BRANCH  66  70
ATOM     70  C   UNL A   1      10.581  57.029  11.913  0.00  0.00    +0.000 C 
BRANCH  70  71
ATOM     71  C   UNL A   1      10.670  56.046  13.075  0.00  0.00    +0.000 C 
BRANCH  71  72
ATOM     72  C   UNL A   1      10.947  54.626  12.574  0.00  0.00    +0.000 C 
BRANCH  72  73
ATOM     73  C   UNL A   1      11.050  53.633  13.732  0.00  0.00    +0.000 C 
BRANCH  73  74
ATOM     74  C   UNL A   1      11.662  52.301  13.290  0.00  0.00    +0.000 C 
BRANCH  74  75
ATOM     75  C   UNL A   1      12.852  51.929  14.175  0.00  0.00    +0.000 C 
BRANCH  75  78
ATOM     76  O   UNL A   1      15.021  52.682  12.499  0.00  0.00    +0.000 OA
ATOM     77  C   UNL A   1      14.811  51.492  12.723  0.00  0.00    +0.000 C 
ATOM     78  N   UNL A   1      13.780  51.036  13.512  0.00  0.00    +0.000 N 
ATOM     79  H   UNL A   1      13.722  50.048  13.716  0.00  0.00    +0.000 HD
BRANCH  77  80
ATOM     80  C   UNL A   1      15.694  50.382  12.149  0.00  0.00    +0.000 C 
BRANCH  80  81
ATOM     81  C   UNL A   1      15.974  50.526  10.673  0.00  0.00    +0.000 A 
ATOM     82  C   UNL A   1      14.969  50.064   9.736  0.00  0.00    +0.000 A 
ATOM     83  C   UNL A   1      15.223  50.063   8.420  0.00  0.00    +0.000 A 
ATOM     84  N   UNL A   1      16.422  50.526   7.917  0.00  0.00    +0.000 N 
ATOM     85  C   UNL A   1      17.433  51.005   8.730  0.00  0.00    +0.000 A 
ATOM     86  O   UNL A   1      18.498  51.448   8.318  0.00  0.00    +0.000 OA
ATOM     87  C   UNL A   1      17.150  50.976  10.197  0.00  0.00    +0.000 A 
BRANCH  84  88
ATOM     88  C   UNL A   1      16.725  50.439   6.516  0.00  0.00    +0.000 C 
ATOM     89  F   UNL A   1      15.972  49.460   5.945  0.00  0.00    +0.000 F 
ATOM     90  F   UNL A   1      16.413  51.589   5.863  0.00  0.00    +0.000 F 
ENDBRANCH  84  88
ENDBRANCH  80  81
ENDBRANCH  77  80
ENDBRANCH  75  78
ENDBRANCH  74  75
ENDBRANCH  73  74
ENDBRANCH  72  73
ENDBRANCH  71  72
ENDBRANCH  70  71
ENDBRANCH  66  70
ENDBRANCH  60  67
ENDBRANCH   1  63
TORSDOF 15
ENDMDL
MODEL 10
REMARK VINA RESULT:      -9.5     42.383     46.305
REMARK  Name = 
REMARK  15 active torsions:
REMARK  status: ('A' for Active; 'I' for Inactive)
REMARK    1  A    between atoms: C_2  and  C_3
REMARK    2  A    between atoms: C_3  and  C_4
REMARK    3  A    between atoms: N_7  and  C_8
REMARK    4  A    between atoms: N_14  and  C_15
REMARK    5  A    between atoms: C_15  and  C_16
REMARK    6  A    between atoms: C_16  and  C_17
REMARK    7  A    between atoms: C_17  and  C_18
REMARK    8  A    between atoms: C_18  and  C_19
REMARK    9  A    between atoms: C_19  and  C_20
REMARK   10  A    between atoms: C_20  and  N_21
REMARK   11  A    between atoms: C_22  and  C_24
REMARK   12  A    between atoms: C_27  and  C_28
REMARK   13  A    between atoms: C_32  and  C_33
REMARK   14  A    between atoms: C_49  and  C_50
REMARK   15  A    between atoms: C_64  and  C_65
REMARK                            x       y       z     vdW  Elec       q    Type
REMARK                         _______ _______ _______ _____ _____    ______ ____
ROOT
ATOM      1  C   UNL A   1      22.895  37.477  47.215  0.00  0.00    +0.000 C 
ATOM      2  C   UNL A   1      22.074  38.512  47.911  0.00  0.00    +0.000 C 
ATOM      3  N   UNL A   1      22.419  39.718  48.278  0.00  0.00    +0.000 NA
ATOM      4  C   UNL A   1      21.297  40.258  48.881  0.00  0.00    +0.000 C 
ATOM      5  C   UNL A   1      21.163  41.471  49.458  0.00  0.00    +0.000 C 
ATOM      6  C   UNL A   1      22.206  42.455  49.531  0.00  0.00    +0.000 A 
ATOM      7  C   UNL A   1      22.161  43.699  50.136  0.00  0.00    +0.000 A 
ATOM      8  C   UNL A   1      23.379  44.345  49.902  0.00  0.00    +0.000 A 
ATOM      9  C   UNL A   1      24.201  43.486  49.194  0.00  0.00    +0.000 A 
ATOM     10  N   UNL A   1      23.474  42.320  48.971  0.00  0.00    +0.000 N 
ATOM     11  C   UNL A   1      25.544  43.725  48.742  0.00  0.00    +0.000 C 
ATOM     12  C   UNL A   1      26.292  42.820  48.073  0.00  0.00    +0.000 C 
ATOM     13  N   UNL A   1      25.944  41.533  47.705  0.00  0.00    +0.000 NA
ATOM     14  C   UNL A   1      26.986  41.052  47.073  0.00  0.00    +0.000 C 
ATOM     15  C   UNL A   1      27.173  39.701  46.473  0.00  0.00    +0.000 C 
ATOM     16  C   UNL A   1      26.164  38.812  46.515  0.00  0.00    +0.000 A 
ATOM     17  C   UNL A   1      26.237  37.454  45.986  0.00  0.00    +0.000 A 
ATOM     18  C   UNL A   1      25.057  36.846  46.176  0.00  0.00    +0.000 A 
ATOM     19  C   UNL A   1      24.155  37.771  46.857  0.00  0.00    +0.000 A 
ATOM     20  N   UNL A   1      24.892  38.920  47.022  0.00  0.00    +0.000 N 
ATOM     21  C   UNL A   1      28.114  41.986  46.964  0.00  0.00    +0.000 C 
ATOM     22  C   UNL A   1      27.641  43.048  47.603  0.00  0.00    +0.000 C 
ATOM     23  C   UNL A   1      20.251  39.262  48.809  0.00  0.00    +0.000 C 
ATOM     24  C   UNL A   1      20.689  38.149  48.237  0.00  0.00    +0.000 C 
ATOM     25  H   UNL A   1      23.813  41.497  48.467  0.00  0.00    +0.000 HD
ATOM     26  H   UNL A   1      24.537  39.759  47.491  0.00  0.00    +0.000 HD
ENDROOT
BRANCH   5  27
ATOM     27  C   UNL A   1      19.834  41.794  50.064  0.00  0.00    +0.000 A 
ATOM     28  C   UNL A   1      18.851  42.469  49.327  0.00  0.00    +0.000 A 
ATOM     29  F   UNL A   1      19.102  42.857  48.068  0.00  0.00    +0.000 F 
ATOM     30  C   UNL A   1      17.615  42.765  49.891  0.00  0.00    +0.000 A 
ATOM     31  F   UNL A   1      16.698  43.438  49.180  0.00  0.00    +0.000 F 
ATOM     32  C   UNL A   1      17.333  42.379  51.194  0.00  0.00    +0.000 A 
ATOM     33  F   UNL A   1      16.147  42.680  51.740  0.00  0.00    +0.000 F 
ATOM     34  C   UNL A   1      18.289  41.703  51.936  0.00  0.00    +0.000 A 
ATOM     35  F   UNL A   1      18.021  41.339  53.199  0.00  0.00    +0.000 F 
ATOM     36  C   UNL A   1      19.533  41.415  51.379  0.00  0.00    +0.000 A 
ATOM     37  F   UNL A   1      20.452  40.788  52.128  0.00  0.00    +0.000 F 
ENDBRANCH   5  27
BRANCH  11  38
ATOM     38  C   UNL A   1      26.176  45.054  49.023  0.00  0.00    +0.000 A 
ATOM     39  C   UNL A   1      26.997  45.242  50.143  0.00  0.00    +0.000 A 
ATOM     40  F   UNL A   1      27.235  44.222  50.981  0.00  0.00    +0.000 F 
ATOM     41  C   UNL A   1      27.563  46.486  50.415  0.00  0.00    +0.000 A 
ATOM     42  F   UNL A   1      28.319  46.651  51.508  0.00  0.00    +0.000 F 
ATOM     43  C   UNL A   1      27.332  47.560  49.565  0.00  0.00    +0.000 A 
ATOM     44  F   UNL A   1      27.867  48.759  49.838  0.00  0.00    +0.000 F 
ATOM     45  C   UNL A   1      26.535  47.388  48.442  0.00  0.00    +0.000 A 
ATOM     46  F   UNL A   1      26.308  48.425  47.622  0.00  0.00    +0.000 F 
ATOM     47  C   UNL A   1      25.962  46.149  48.172  0.00  0.00    +0.000 A 
ATOM     48  F   UNL A   1      25.180  46.014  47.090  0.00  0.00    +0.000 F 
ENDBRANCH  11  38
BRANCH  15  49
ATOM     49  C   UNL A   1      28.451  39.311  45.838  0.00  0.00    +0.000 A 
ATOM     50  C   UNL A   1      29.370  38.495  46.508  0.00  0.00    +0.000 A 
ATOM     51  F   UNL A   1      29.059  37.976  47.704  0.00  0.00    +0.000 F 
ATOM     52  C   UNL A   1      30.616  38.216  45.949  0.00  0.00    +0.000 A 
ATOM     53  F   UNL A   1      31.490  37.447  46.613  0.00  0.00    +0.000 F 
ATOM     54  C   UNL A   1      30.954  38.743  44.711  0.00  0.00    +0.000 A 
ATOM     55  F   UNL A   1      32.158  38.483  44.179  0.00  0.00    +0.000 F 
ATOM     56  C   UNL A   1      30.046  39.535  44.023  0.00  0.00    +0.000 A 
ATOM     57  F   UNL A   1      30.363  40.034  42.820  0.00  0.00    +0.000 F 
ATOM     58  C   UNL A   1      28.801  39.815  44.581  0.00  0.00    +0.000 A 
ATOM     59  F   UNL A   1      27.933  40.588  43.912  0.00  0.00    +0.000 F 
ENDBRANCH  15  49
BRANCH   1  63
ATOM     60  C   UNL A   1      21.458  33.553  46.305  0.00  0.00    +0.000 A 
ATOM     61  C   UNL A   1      21.356  34.573  45.351  0.00  0.00    +0.000 A 
ATOM     62  C   UNL A   1      21.789  35.865  45.660  0.00  0.00    +0.000 A 
ATOM     63  C   UNL A   1      22.323  36.144  46.927  0.00  0.00    +0.000 A 
ATOM     64  C   UNL A   1      22.360  35.137  47.900  0.00  0.00    +0.000 A 
ATOM     65  C   UNL A   1      21.930  33.844  47.590  0.00  0.00    +0.000 A 
BRANCH  60  67
ATOM     66  N   UNL A   1      20.026  31.951  45.167  0.00  0.00    +0.000 N 
ATOM     67  C   UNL A   1      21.116  32.138  46.005  0.00  0.00    +0.000 C 
ATOM     68  O   UNL A   1      21.840  31.254  46.454  0.00  0.00    +0.000 OA
ATOM     69  H   UNL A   1      19.526  32.755  44.801  0.00  0.00    +0.000 HD
BRANCH  66  70
ATOM     70  C   UNL A   1      19.616  30.637  44.685  0.00  0.00    +0.000 C 
BRANCH  70  71
ATOM     71  C   UNL A   1      18.348  30.719  43.842  0.00  0.00    +0.000 C 
BRANCH  71  72
ATOM     72  C   UNL A   1      18.391  31.926  42.902  0.00  0.00    +0.000 C 
BRANCH  72  73
ATOM     73  C   UNL A   1      17.139  31.998  42.025  0.00  0.00    +0.000 C 
BRANCH  73  74
ATOM     74  C   UNL A   1      16.413  33.338  42.176  0.00  0.00    +0.000 C 
BRANCH  74  75
ATOM     75  C   UNL A   1      15.706  33.424  43.528  0.00  0.00    +0.000 C 
BRANCH  75  78
ATOM     76  O   UNL A   1      17.738  34.050  45.415  0.00  0.00    +0.000 OA
ATOM     77  C   UNL A   1      16.932  34.915  45.081  0.00  0.00    +0.000 C 
ATOM     78  N   UNL A   1      15.911  34.700  44.183  0.00  0.00    +0.000 N 
ATOM     79  H   UNL A   1      15.340  35.483  43.897  0.00  0.00    +0.000 HD
BRANCH  77  80
ATOM     80  C   UNL A   1      16.990  36.343  45.627  0.00  0.00    +0.000 C 
BRANCH  80  81
ATOM     81  C   UNL A   1      16.458  36.481  47.033  0.00  0.00    +0.000 A 
ATOM     82  C   UNL A   1      15.067  36.156  47.274  0.00  0.00    +0.000 A 
ATOM     83  C   UNL A   1      14.521  36.375  48.479  0.00  0.00    +0.000 A 
ATOM     84  N   UNL A   1      15.266  36.882  49.525  0.00  0.00    +0.000 N 
ATOM     85  C   UNL A   1      16.604  37.204  49.397  0.00  0.00    +0.000 A 
ATOM     86  O   UNL A   1      17.301  37.630  50.309  0.00  0.00    +0.000 OA
ATOM     87  C   UNL A   1      17.195  36.981  48.043  0.00  0.00    +0.000 A 
BRANCH  84  88
ATOM     88  C   UNL A   1      14.657  37.200  50.786  0.00  0.00    +0.000 C 
ATOM     89  F   UNL A   1      14.579  38.551  50.929  0.00  0.00    +0.000 F 
ATOM     90  F   UNL A   1      13.382  36.735  50.859  0.00  0.00    +0.000 F 
ENDBRANCH  84  88
ENDBRANCH  80  81
ENDBRANCH  77  80
ENDBRANCH  75  78
ENDBRANCH  74  75
ENDBRANCH  73  74
ENDBRANCH  72  73
ENDBRANCH  71  72
ENDBRANCH  70  71
ENDBRANCH  66  70
ENDBRANCH  60  67
ENDBRANCH   1  63
TORSDOF 15
ENDMDL
