MODEL 1
REMARK VINA RESULT:      -9.2      0.000      0.000
ROOT
ATOM    129  H37 UNL A   1      18.170  24.100   0.696  1.00  0.00    +0.000 H 
ATOM    130  H38 UNL A   1      15.866  23.463   1.606  1.00  0.00    +0.000 H 
ATOM    131  H39 UNL A   1      20.053  16.620   7.656  1.00  0.00    +0.000 H 
ATOM    132  H40 UNL A   1      22.373  17.553   7.104  1.00  0.00    +0.000 H 
ATOM     31  C26 UNL A   1      22.345  19.582   5.101  1.00  0.00    +0.000 C 
ATOM     32  C27 UNL A   1      21.165  18.907   5.744  1.00  0.00    +0.000 C 
ATOM     33  N3  UNL A   1      19.887  19.098   5.533  1.00  0.00    +0.000 N 
ATOM     34  C28 UNL A   1      19.228  18.187   6.349  1.00  0.00    +0.000 C 
ATOM     35  C29 UNL A   1      17.895  18.025   6.528  1.00  0.00    +0.000 C 
ATOM     47  C36 UNL A   1      16.886  18.819   5.879  1.00  0.00    +0.000 C 
ATOM     48  C37 UNL A   1      15.513  18.780   6.053  1.00  0.00    +0.000 C 
ATOM     49  C38 UNL A   1      14.934  19.708   5.180  1.00  0.00    +0.000 C 
ATOM     50  C39 UNL A   1      15.948  20.356   4.494  1.00  0.00    +0.000 C 
ATOM     51  N4  UNL A   1      17.140  19.798   4.930  1.00  0.00    +0.000 N 
ATOM     52  C40 UNL A   1      15.841  21.403   3.513  1.00  0.00    +0.000 C 
ATOM     64  C47 UNL A   1      16.888  21.998   2.892  1.00  0.00    +0.000 C 
ATOM     65  N5  UNL A   1      18.246  21.754   3.048  1.00  0.00    +0.000 N 
ATOM     66  C48 UNL A   1      18.855  22.570   2.222  1.00  0.00    +0.000 C 
ATOM     67  C49 UNL A   1      20.328  22.757   1.988  1.00  0.00    +0.000 C 
ATOM     79  C56 UNL A   1      21.207  22.041   2.714  1.00  0.00    +0.000 C 
ATOM     80  C57 UNL A   1      22.661  22.124   2.606  1.00  0.00    +0.000 C 
ATOM     81  C58 UNL A   1      23.214  21.236   3.448  1.00  0.00    +0.000 C 
ATOM     82  C59 UNL A   1      22.153  20.543   4.178  1.00  0.00    +0.000 C 
ATOM     83  N6  UNL A   1      20.996  21.093   3.686  1.00  0.00    +0.000 N 
ATOM     84  C60 UNL A   1      17.946  23.410   1.429  1.00  0.00    +0.000 C 
ATOM     85  C61 UNL A   1      16.763  23.049   1.903  1.00  0.00    +0.000 C 
ATOM     86  C62 UNL A   1      20.246  17.415   7.026  1.00  0.00    +0.000 C 
ATOM     87  C63 UNL A   1      21.460  17.861   6.734  1.00  0.00    +0.000 C 
ATOM    123  H31 UNL A   1      15.003  18.171   6.712  1.00  0.00    +0.000 H 
ATOM    124  H32 UNL A   1      13.923  19.881   5.068  1.00  0.00    +0.000 H 
ATOM    125  H33 UNL A   1      18.035  20.059   4.613  1.00  0.00    +0.000 H 
ATOM    126  H34 UNL A   1      23.179  22.762   1.983  1.00  0.00    +0.000 H 
ATOM    127  H35 UNL A   1      24.227  21.070   3.562  1.00  0.00    +0.000 H 
ATOM    128  H36 UNL A   1      20.099  20.834   4.000  1.00  0.00    +0.000 H 
ENDROOT
BRANCH   31   30
ATOM    133  H41 UNL A   1      23.847  17.758   3.831  1.00  0.00    +0.000 H 
ATOM    134  H42 UNL A   1      26.080  16.989   4.373  1.00  0.00    +0.000 H 
ATOM     29  C24 UNL A   1      24.429  19.698   6.507  1.00  0.00    +0.000 C 
ATOM     88  C64 UNL A   1      24.352  18.170   4.630  1.00  0.00    +0.000 C 
ATOM     89  C65 UNL A   1      25.652  17.754   4.918  1.00  0.00    +0.000 C 
ATOM    122  H30 UNL A   1      23.964  20.384   7.122  1.00  0.00    +0.000 H 
ATOM     27  C22 UNL A   1      26.373  18.372   5.943  1.00  0.00    +0.000 C 
ATOM     28  C23 UNL A   1      25.751  19.324   6.756  1.00  0.00    +0.000 C 
ATOM    121  H29 UNL A   1      26.270  19.752   7.540  1.00  0.00    +0.000 H 
ATOM     30  C25 UNL A   1      23.728  19.145   5.424  1.00  0.00    +0.000 C 
BRANCH   27   25
ATOM     25  C21 UNL A   1      27.778  18.000   6.228  1.00  0.00    +0.000 C 
ATOM     26  O2  UNL A   1      28.641  18.197   5.382  1.00  0.00    +0.000 O 
BRANCH   25   24
ATOM    120  H28 UNL A   1      27.793  16.521   7.578  1.00  0.00    +0.000 H 
ATOM     24  N2  UNL A   1      28.119  17.438   7.435  1.00  0.00    +0.000 N 
BRANCH   24   23
ATOM    119  H27 UNL A   1      29.499  18.789   8.138  1.00  0.00    +0.000 H 
ATOM    118  H26 UNL A   1      29.490  17.227   8.964  1.00  0.00    +0.000 H 
ATOM     23  C20 UNL A   1      28.891  18.001   8.533  1.00  0.00    +0.000 C 
BRANCH   23   22
ATOM    116  H24 UNL A   1      27.029  18.144   9.535  1.00  0.00    +0.000 H 
ATOM    117  H25 UNL A   1      28.480  18.390  10.551  1.00  0.00    +0.000 H 
ATOM     22  C19 UNL A   1      27.996  18.595   9.618  1.00  0.00    +0.000 C 
BRANCH   22   21
ATOM    114  H22 UNL A   1      28.770  20.548   9.324  1.00  0.00    +0.000 H 
ATOM    115  H23 UNL A   1      27.072  20.289   8.805  1.00  0.00    +0.000 H 
ATOM     21  C18 UNL A   1      27.818  20.116   9.552  1.00  0.00    +0.000 C 
BRANCH   21   20
ATOM    113  H21 UNL A   1      27.998  21.546  11.078  1.00  0.00    +0.000 H 
ATOM     20  C17 UNL A   1      27.292  20.782  10.830  1.00  0.00    +0.000 C 
ATOM    112  H20 UNL A   1      27.196  20.026  11.581  1.00  0.00    +0.000 H 
BRANCH   20   19
ATOM     19  C16 UNL A   1      25.937  21.487  10.693  1.00  0.00    +0.000 C 
ATOM    110  H18 UNL A   1      26.115  22.509  10.432  1.00  0.00    +0.000 H 
ATOM    111  H19 UNL A   1      25.389  20.960   9.941  1.00  0.00    +0.000 H 
BRANCH   19   18
ATOM     18  C15 UNL A   1      25.089  21.455  11.965  1.00  0.00    +0.000 C 
ATOM    108  H16 UNL A   1      25.113  22.423  12.421  1.00  0.00    +0.000 H 
ATOM    109  H17 UNL A   1      24.091  21.182  11.692  1.00  0.00    +0.000 H 
BRANCH   18   17
ATOM     17  N1  UNL A   1      25.575  20.479  12.916  1.00  0.00    +0.000 N 
ATOM    107  H15 UNL A   1      26.377  20.758  13.413  1.00  0.00    +0.000 H 
BRANCH   17   15
ATOM     15  C14 UNL A   1      25.112  19.240  13.241  1.00  0.00    +0.000 C 
ATOM     16  O1  UNL A   1      25.872  18.527  13.908  1.00  0.00    +0.000 O 
BRANCH   15   13
ATOM     13  C12 UNL A   1      23.740  18.704  12.807  1.00  0.00    +0.000 C 
ATOM    103  H11 UNL A   1      23.213  19.548  12.415  1.00  0.00    +0.000 H 
BRANCH   13   12
ATOM    101  H9  UNL A   1      24.633  17.548   8.372  1.00  0.00    +0.000 H 
ATOM    102  H10 UNL A   1      24.754  19.047  10.255  1.00  0.00    +0.000 H 
ATOM    135  H43 UNL A   1      22.930  16.150  12.672  1.00  0.00    +0.000 H 
ATOM    136  H44 UNL A   1      22.959  14.596  10.830  1.00  0.00    +0.000 H 
ATOM      9  C8  UNL A   1      23.766  15.932   9.411  1.00  0.00    +0.000 C 
ATOM     10  C9  UNL A   1      24.280  17.233   9.289  1.00  0.00    +0.000 C 
ATOM     11  C10 UNL A   1      24.328  18.116  10.377  1.00  0.00    +0.000 C 
ATOM     12  C11 UNL A   1      23.809  17.754  11.622  1.00  0.00    +0.000 C 
ATOM     90  C66 UNL A   1      23.307  16.453  11.761  1.00  0.00    +0.000 C 
ATOM     91  C67 UNL A   1      23.306  15.556  10.684  1.00  0.00    +0.000 C 
BRANCH    9    8
ATOM     98  H6  UNL A   1      23.431  12.644   5.203  1.00  0.00    +0.000 H 
ATOM     99  H7  UNL A   1      24.589  14.763   5.001  1.00  0.00    +0.000 H 
ATOM      4  C3  UNL A   1      22.931  12.907   7.235  1.00  0.00    +0.000 C 
ATOM      5  C4  UNL A   1      23.502  13.273   6.017  1.00  0.00    +0.000 C 
ATOM      6  C5  UNL A   1      24.168  14.491   5.902  1.00  0.00    +0.000 C 
ATOM      7  C6  UNL A   1      24.267  15.344   7.006  1.00  0.00    +0.000 C 
ATOM      8  C7  UNL A   1      23.693  15.013   8.247  1.00  0.00    +0.000 C 
ATOM    137  H45 UNL A   1      22.610  13.491   9.232  1.00  0.00    +0.000 H 
ATOM    100  H8  UNL A   1      24.773  16.237   6.907  1.00  0.00    +0.000 H 
ATOM     92  C68 UNL A   1      23.032  13.772   8.333  1.00  0.00    +0.000 C 
BRANCH    4    3
ATOM      3  S1  UNL A   1      22.152  11.315   7.414  1.00  0.00    +0.000 S 
BRANCH    3    2
ATOM     97  H5  UNL A   1      19.862  10.985   6.864  1.00  0.00    +0.000 H 
ATOM      2  C2  UNL A   1      20.644  11.563   6.417  1.00  0.00    +0.000 C 
ATOM     96  H4  UNL A   1      20.842  11.250   5.413  1.00  0.00    +0.000 H 
BRANCH    2    1
ATOM      1  C1  UNL A   1      20.191  13.012   6.395  1.00  0.00    +0.000 C 
ATOM     93  H1  UNL A   1      21.047  13.653   6.354  1.00  0.00    +0.000 H 
ATOM     94  H2  UNL A   1      19.629  13.224   7.281  1.00  0.00    +0.000 H 
ATOM     95  H3  UNL A   1      19.578  13.181   5.535  1.00  0.00    +0.000 H 
ENDBRANCH    2    1
ENDBRANCH    3    2
ENDBRANCH    4    3
ENDBRANCH    9    8
ENDBRANCH   13   12
BRANCH   13   14
ATOM    105  H13 UNL A   1      21.894  17.945  13.574  1.00  0.00    +0.000 H 
ATOM    106  H14 UNL A   1      22.679  19.102  14.621  1.00  0.00    +0.000 H 
ATOM     14  C13 UNL A   1      22.835  18.274  13.963  1.00  0.00    +0.000 C 
ATOM    104  H12 UNL A   1      23.298  17.473  14.500  1.00  0.00    +0.000 H 
ENDBRANCH   13   14
ENDBRANCH   15   13
ENDBRANCH   17   15
ENDBRANCH   18   17
ENDBRANCH   19   18
ENDBRANCH   20   19
ENDBRANCH   21   20
ENDBRANCH   22   21
ENDBRANCH   23   22
ENDBRANCH   24   23
ENDBRANCH   25   24
ENDBRANCH   27   25
ENDBRANCH   31   30
BRANCH   35   36
ATOM     36  C30 UNL A   1      17.447  16.947   7.472  1.00  0.00    +0.000 C 
ATOM     37  C31 UNL A   1      16.996  17.245   8.766  1.00  0.00    +0.000 C 
ATOM     38  F1  UNL A   1      17.009  18.511   9.210  1.00  0.00    +0.000 F 
ATOM     39  C32 UNL A   1      16.561  16.238   9.623  1.00  0.00    +0.000 C 
ATOM     40  F2  UNL A   1      16.173  16.541  10.870  1.00  0.00    +0.000 F 
ATOM     41  C33 UNL A   1      16.537  14.920   9.192  1.00  0.00    +0.000 C 
ATOM     42  F3  UNL A   1      16.110  13.952  10.015  1.00  0.00    +0.000 F 
ATOM     43  C34 UNL A   1      16.962  14.604   7.910  1.00  0.00    +0.000 C 
ATOM     44  F4  UNL A   1      16.930  13.332   7.489  1.00  0.00    +0.000 F 
ATOM     45  C35 UNL A   1      17.424  15.606   7.060  1.00  0.00    +0.000 C 
ATOM     46  F5  UNL A   1      17.839  15.268   5.831  1.00  0.00    +0.000 F 
ENDBRANCH   35   36
BRANCH   52   53
ATOM     53  C41 UNL A   1      14.468  21.894   3.160  1.00  0.00    +0.000 C 
ATOM     54  C42 UNL A   1      13.763  21.377   2.065  1.00  0.00    +0.000 C 
ATOM     55  F6  UNL A   1      14.332  20.458   1.270  1.00  0.00    +0.000 F 
ATOM     56  C43 UNL A   1      12.483  21.831   1.760  1.00  0.00    +0.000 C 
ATOM     57  F7  UNL A   1      11.844  21.355   0.681  1.00  0.00    +0.000 F 
ATOM     58  C44 UNL A   1      11.872  22.786   2.560  1.00  0.00    +0.000 C 
ATOM     59  F8  UNL A   1      10.639  23.216   2.267  1.00  0.00    +0.000 F 
ATOM     60  C45 UNL A   1      12.545  23.298   3.658  1.00  0.00    +0.000 C 
ATOM     61  F9  UNL A   1      11.953  24.212   4.440  1.00  0.00    +0.000 F 
ATOM     62  C46 UNL A   1      13.836  22.865   3.952  1.00  0.00    +0.000 C 
ATOM     63  F10 UNL A   1      14.466  23.387   5.014  1.00  0.00    +0.000 F 
ENDBRANCH   52   53
BRANCH   67   68
ATOM     68  C50 UNL A   1      20.822  23.738   0.989  1.00  0.00    +0.000 C 
ATOM     69  C51 UNL A   1      21.180  25.037   1.374  1.00  0.00    +0.000 C 
ATOM     70  F11 UNL A   1      21.057  25.413   2.655  1.00  0.00    +0.000 F 
ATOM     71  C52 UNL A   1      21.628  25.966   0.438  1.00  0.00    +0.000 C 
ATOM     72  F12 UNL A   1      21.926  27.215   0.827  1.00  0.00    +0.000 F 
ATOM     73  C53 UNL A   1      21.755  25.607  -0.895  1.00  0.00    +0.000 C 
ATOM     74  F13 UNL A   1      22.190  26.500  -1.794  1.00  0.00    +0.000 F 
ATOM     75  C54 UNL A   1      21.421  24.322  -1.297  1.00  0.00    +0.000 C 
ATOM     76  F14 UNL A   1      21.554  23.966  -2.581  1.00  0.00    +0.000 F 
ATOM     77  C55 UNL A   1      20.949  23.399  -0.366  1.00  0.00    +0.000 C 
ATOM     78  F15 UNL A   1      20.624  22.166  -0.783  1.00  0.00    +0.000 F 
ENDBRANCH   67   68
TORSDOF 21
ENDMDL
MODEL 2
REMARK VINA RESULT:      -8.8     41.406     46.990
ROOT
ATOM    129  H37 UNL A   1      18.134  42.346  50.930  1.00  0.00    +0.000 H 
ATOM    130  H38 UNL A   1      16.751  40.194  50.941  1.00  0.00    +0.000 H 
ATOM    131  H39 UNL A   1      24.001  35.408  45.892  1.00  0.00    +0.000 H 
ATOM    132  H40 UNL A   1      25.574  37.393  46.271  1.00  0.00    +0.000 H 
ATOM     31  C26 UNL A   1      24.323  39.622  47.534  1.00  0.00    +0.000 C 
ATOM     32  C27 UNL A   1      23.734  38.263  47.270  1.00  0.00    +0.000 C 
ATOM     33  N3  UNL A   1      22.539  37.810  47.557  1.00  0.00    +0.000 N 
ATOM     34  C28 UNL A   1      22.495  36.515  47.056  1.00  0.00    +0.000 C 
ATOM     35  C29 UNL A   1      21.493  35.609  47.144  1.00  0.00    +0.000 C 
ATOM     47  C36 UNL A   1      20.243  35.844  47.819  1.00  0.00    +0.000 C 
ATOM     48  C37 UNL A   1      19.195  34.963  48.026  1.00  0.00    +0.000 C 
ATOM     49  C38 UNL A   1      18.174  35.647  48.696  1.00  0.00    +0.000 C 
ATOM     50  C39 UNL A   1      18.603  36.941  48.944  1.00  0.00    +0.000 C 
ATOM     51  N4  UNL A   1      19.872  37.049  48.397  1.00  0.00    +0.000 N 
ATOM     52  C40 UNL A   1      17.908  38.001  49.626  1.00  0.00    +0.000 C 
ATOM     64  C47 UNL A   1      18.403  39.244  49.840  1.00  0.00    +0.000 C 
ATOM     65  N5  UNL A   1      19.638  39.765  49.474  1.00  0.00    +0.000 N 
ATOM     66  C48 UNL A   1      19.640  41.008  49.891  1.00  0.00    +0.000 C 
ATOM     67  C49 UNL A   1      20.729  42.039  49.789  1.00  0.00    +0.000 C 
ATOM     79  C56 UNL A   1      21.907  41.702  49.230  1.00  0.00    +0.000 C 
ATOM     80  C57 UNL A   1      23.054  42.590  49.073  1.00  0.00    +0.000 C 
ATOM     81  C58 UNL A   1      24.035  41.930  48.436  1.00  0.00    +0.000 C 
ATOM     82  C59 UNL A   1      23.594  40.562  48.166  1.00  0.00    +0.000 C 
ATOM     83  N6  UNL A   1      22.324  40.513  48.682  1.00  0.00    +0.000 N 
ATOM     84  C60 UNL A   1      18.393  41.423  50.549  1.00  0.00    +0.000 C 
ATOM     85  C61 UNL A   1      17.689  40.301  50.525  1.00  0.00    +0.000 C 
ATOM     86  C62 UNL A   1      23.766  36.270  46.409  1.00  0.00    +0.000 C 
ATOM     87  C63 UNL A   1      24.590  37.297  46.567  1.00  0.00    +0.000 C 
ATOM    123  H31 UNL A   1      19.171  33.973  47.737  1.00  0.00    +0.000 H 
ATOM    124  H32 UNL A   1      17.258  35.253  48.961  1.00  0.00    +0.000 H 
ATOM    125  H33 UNL A   1      20.429  37.861  48.417  1.00  0.00    +0.000 H 
ATOM    126  H34 UNL A   1      23.105  43.567  49.401  1.00  0.00    +0.000 H 
ATOM    127  H35 UNL A   1      24.953  42.326  48.177  1.00  0.00    +0.000 H 
ATOM    128  H36 UNL A   1      21.764  39.703  48.663  1.00  0.00    +0.000 H 
ENDROOT
BRANCH   31   30
ATOM    133  H41 UNL A   1      26.673  39.288  48.780  1.00  0.00    +0.000 H 
ATOM    134  H42 UNL A   1      28.894  39.884  48.015  1.00  0.00    +0.000 H 
ATOM     29  C24 UNL A   1      25.869  40.526  45.767  1.00  0.00    +0.000 C 
ATOM     88  C64 UNL A   1      26.800  39.704  47.845  1.00  0.00    +0.000 C 
ATOM     89  C65 UNL A   1      28.082  40.012  47.391  1.00  0.00    +0.000 C 
ATOM    122  H30 UNL A   1      25.051  40.757  45.182  1.00  0.00    +0.000 H 
ATOM     27  C22 UNL A   1      28.267  40.492  46.092  1.00  0.00    +0.000 C 
ATOM     28  C23 UNL A   1      27.158  40.776  45.290  1.00  0.00    +0.000 C 
ATOM    121  H29 UNL A   1      27.291  41.170  44.345  1.00  0.00    +0.000 H 
ATOM     30  C25 UNL A   1      25.681  39.961  47.038  1.00  0.00    +0.000 C 
BRANCH   27   25
ATOM     25  C21 UNL A   1      29.622  40.763  45.557  1.00  0.00    +0.000 C 
ATOM     26  O2  UNL A   1      30.211  41.784  45.888  1.00  0.00    +0.000 O 
BRANCH   25   24
ATOM    120  H28 UNL A   1      30.527  40.261  43.843  1.00  0.00    +0.000 H 
ATOM     24  N2  UNL A   1      30.220  39.876  44.696  1.00  0.00    +0.000 N 
BRANCH   24   23
ATOM    119  H27 UNL A   1      30.488  38.238  45.906  1.00  0.00    +0.000 H 
ATOM    118  H26 UNL A   1      31.400  38.209  44.394  1.00  0.00    +0.000 H 
ATOM     23  C20 UNL A   1      30.467  38.451  44.858  1.00  0.00    +0.000 C 
BRANCH   23   22
ATOM    116  H24 UNL A   1      28.827  38.218  43.536  1.00  0.00    +0.000 H 
ATOM    117  H25 UNL A   1      29.859  36.774  43.759  1.00  0.00    +0.000 H 
ATOM     22  C19 UNL A   1      29.367  37.602  44.225  1.00  0.00    +0.000 C 
BRANCH   22   21
ATOM    114  H22 UNL A   1      28.913  36.573  46.024  1.00  0.00    +0.000 H 
ATOM    115  H23 UNL A   1      27.722  37.810  45.504  1.00  0.00    +0.000 H 
ATOM     21  C18 UNL A   1      28.361  37.003  45.215  1.00  0.00    +0.000 C 
BRANCH   21   20
ATOM    113  H21 UNL A   1      26.533  36.420  44.361  1.00  0.00    +0.000 H 
ATOM     20  C17 UNL A   1      27.434  35.919  44.648  1.00  0.00    +0.000 C 
ATOM    112  H20 UNL A   1      27.290  35.178  45.406  1.00  0.00    +0.000 H 
BRANCH   20   19
ATOM     19  C16 UNL A   1      27.945  35.212  43.387  1.00  0.00    +0.000 C 
ATOM    110  H18 UNL A   1      27.191  35.285  42.632  1.00  0.00    +0.000 H 
ATOM    111  H19 UNL A   1      28.856  35.697  43.108  1.00  0.00    +0.000 H 
BRANCH   19   18
ATOM     18  C15 UNL A   1      28.276  33.733  43.595  1.00  0.00    +0.000 C 
ATOM    108  H16 UNL A   1      27.382  33.158  43.471  1.00  0.00    +0.000 H 
ATOM    109  H17 UNL A   1      29.017  33.454  42.876  1.00  0.00    +0.000 H 
BRANCH   18   17
ATOM     17  N1  UNL A   1      28.815  33.479  44.914  1.00  0.00    +0.000 N 
ATOM    107  H15 UNL A   1      29.680  33.915  45.092  1.00  0.00    +0.000 H 
BRANCH   17   15
ATOM     15  C14 UNL A   1      28.330  32.742  45.951  1.00  0.00    +0.000 C 
ATOM     16  O1  UNL A   1      27.453  31.915  45.675  1.00  0.00    +0.000 O 
BRANCH   15   13
ATOM     13  C12 UNL A   1      28.798  32.909  47.405  1.00  0.00    +0.000 C 
ATOM    103  H11 UNL A   1      29.764  33.364  47.345  1.00  0.00    +0.000 H 
BRANCH   13   12
ATOM    101  H9  UNL A   1      24.848  34.825  48.996  1.00  0.00    +0.000 H 
ATOM    102  H10 UNL A   1      26.082  33.061  47.912  1.00  0.00    +0.000 H 
ATOM    135  H43 UNL A   1      29.668  35.060  48.751  1.00  0.00    +0.000 H 
ATOM    136  H44 UNL A   1      28.445  36.738  49.976  1.00  0.00    +0.000 H 
ATOM      9  C8  UNL A   1      26.523  35.964  49.575  1.00  0.00    +0.000 C 
ATOM     10  C9  UNL A   1      25.878  34.878  48.963  1.00  0.00    +0.000 C 
ATOM     11  C10 UNL A   1      26.591  33.864  48.310  1.00  0.00    +0.000 C 
ATOM     12  C11 UNL A   1      27.982  33.923  48.190  1.00  0.00    +0.000 C 
ATOM     90  C66 UNL A   1      28.639  34.995  48.809  1.00  0.00    +0.000 C 
ATOM     91  C67 UNL A   1      27.926  35.981  49.504  1.00  0.00    +0.000 C 
BRANCH    9    8
ATOM     98  H6  UNL A   1      23.768  39.834  52.039  1.00  0.00    +0.000 H 
ATOM     99  H7  UNL A   1      26.141  40.104  51.627  1.00  0.00    +0.000 H 
ATOM      4  C3  UNL A   1      23.648  37.928  51.143  1.00  0.00    +0.000 C 
ATOM      5  C4  UNL A   1      24.297  39.090  51.557  1.00  0.00    +0.000 C 
ATOM      6  C5  UNL A   1      25.660  39.246  51.319  1.00  0.00    +0.000 C 
ATOM      7  C6  UNL A   1      26.377  38.240  50.663  1.00  0.00    +0.000 C 
ATOM      8  C7  UNL A   1      25.758  37.049  50.241  1.00  0.00    +0.000 C 
ATOM    137  H45 UNL A   1      23.888  36.070  50.184  1.00  0.00    +0.000 H 
ATOM    100  H8  UNL A   1      27.384  38.375  50.484  1.00  0.00    +0.000 H 
ATOM     92  C68 UNL A   1      24.377  36.924  50.491  1.00  0.00    +0.000 C 
BRANCH    4    3
ATOM      3  S1  UNL A   1      21.889  37.758  51.367  1.00  0.00    +0.000 S 
BRANCH    3    2
ATOM     97  H5  UNL A   1      21.027  36.107  52.846  1.00  0.00    +0.000 H 
ATOM      2  C2  UNL A   1      21.804  36.093  52.109  1.00  0.00    +0.000 C 
ATOM     96  H4  UNL A   1      22.754  35.862  52.543  1.00  0.00    +0.000 H 
BRANCH    2    1
ATOM      1  C1  UNL A   1      21.457  35.018  51.095  1.00  0.00    +0.000 C 
ATOM     93  H1  UNL A   1      20.501  34.598  51.334  1.00  0.00    +0.000 H 
ATOM     94  H2  UNL A   1      22.201  34.249  51.121  1.00  0.00    +0.000 H 
ATOM     95  H3  UNL A   1      21.422  35.448  50.116  1.00  0.00    +0.000 H 
ENDBRANCH    2    1
ENDBRANCH    3    2
ENDBRANCH    4    3
ENDBRANCH    9    8
ENDBRANCH   13   12
BRANCH   13   14
ATOM    105  H13 UNL A   1      28.207  31.189  48.531  1.00  0.00    +0.000 H 
ATOM    106  H14 UNL A   1      29.808  31.777  48.913  1.00  0.00    +0.000 H 
ATOM     14  C13 UNL A   1      29.110  31.595  48.123  1.00  0.00    +0.000 C 
ATOM    104  H12 UNL A   1      29.531  30.900  47.428  1.00  0.00    +0.000 H 
ENDBRANCH   13   14
ENDBRANCH   15   13
ENDBRANCH   17   15
ENDBRANCH   18   17
ENDBRANCH   19   18
ENDBRANCH   20   19
ENDBRANCH   21   20
ENDBRANCH   22   21
ENDBRANCH   23   22
ENDBRANCH   24   23
ENDBRANCH   25   24
ENDBRANCH   27   25
ENDBRANCH   31   30
BRANCH   35   36
ATOM     36  C30 UNL A   1      21.705  34.271  46.498  1.00  0.00    +0.000 C 
ATOM     37  C31 UNL A   1      22.427  33.253  47.138  1.00  0.00    +0.000 C 
ATOM     38  F1  UNL A   1      22.997  33.477  48.332  1.00  0.00    +0.000 F 
ATOM     39  C32 UNL A   1      22.597  32.009  46.537  1.00  0.00    +0.000 C 
ATOM     40  F2  UNL A   1      23.326  31.065  47.149  1.00  0.00    +0.000 F 
ATOM     41  C33 UNL A   1      22.021  31.747  45.304  1.00  0.00    +0.000 C 
ATOM     42  F3  UNL A   1      22.178  30.546  44.729  1.00  0.00    +0.000 F 
ATOM     43  C34 UNL A   1      21.288  32.733  44.660  1.00  0.00    +0.000 C 
ATOM     44  F4  UNL A   1      20.722  32.479  43.472  1.00  0.00    +0.000 F 
ATOM     45  C35 UNL A   1      21.139  33.988  45.246  1.00  0.00    +0.000 C 
ATOM     46  F5  UNL A   1      20.434  34.924  44.595  1.00  0.00    +0.000 F 
ENDBRANCH   35   36
BRANCH   52   53
ATOM     53  C41 UNL A   1      16.538  37.708  50.161  1.00  0.00    +0.000 C 
ATOM     54  C42 UNL A   1      16.306  37.546  51.534  1.00  0.00    +0.000 C 
ATOM     55  F6  UNL A   1      17.328  37.597  52.402  1.00  0.00    +0.000 F 
ATOM     56  C43 UNL A   1      15.025  37.291  52.018  1.00  0.00    +0.000 C 
ATOM     57  F7  UNL A   1      14.833  37.094  53.330  1.00  0.00    +0.000 F 
ATOM     58  C44 UNL A   1      13.950  37.225  51.143  1.00  0.00    +0.000 C 
ATOM     59  F8  UNL A   1      12.719  36.985  51.611  1.00  0.00    +0.000 F 
ATOM     60  C45 UNL A   1      14.155  37.400  49.783  1.00  0.00    +0.000 C 
ATOM     61  F9  UNL A   1      13.116  37.348  48.937  1.00  0.00    +0.000 F 
ATOM     62  C46 UNL A   1      15.438  37.629  49.293  1.00  0.00    +0.000 C 
ATOM     63  F10 UNL A   1      15.607  37.784  47.972  1.00  0.00    +0.000 F 
ENDBRANCH   52   53
BRANCH   67   68
ATOM     68  C50 UNL A   1      20.530  43.411  50.320  1.00  0.00    +0.000 C 
ATOM     69  C51 UNL A   1      20.843  43.719  51.651  1.00  0.00    +0.000 C 
ATOM     70  F11 UNL A   1      21.308  42.762  52.467  1.00  0.00    +0.000 F 
ATOM     71  C52 UNL A   1      20.643  45.000  52.159  1.00  0.00    +0.000 C 
ATOM     72  F12 UNL A   1      20.913  45.257  53.448  1.00  0.00    +0.000 F 
ATOM     73  C53 UNL A   1      20.154  46.006  51.340  1.00  0.00    +0.000 C 
ATOM     74  F13 UNL A   1      19.966  47.239  51.828  1.00  0.00    +0.000 F 
ATOM     75  C54 UNL A   1      19.852  45.729  50.014  1.00  0.00    +0.000 C 
ATOM     76  F14 UNL A   1      19.392  46.700  49.215  1.00  0.00    +0.000 F 
ATOM     77  C55 UNL A   1      20.028  44.441  49.512  1.00  0.00    +0.000 C 
ATOM     78  F15 UNL A   1      19.719  44.198  48.229  1.00  0.00    +0.000 F 
ENDBRANCH   67   68
TORSDOF 21
ENDMDL
MODEL 3
REMARK VINA RESULT:      -8.7      0.808      2.174
ROOT
ATOM    129  H37 UNL A   1      18.213  24.196   0.415  1.00  0.00    +0.000 H 
ATOM    130  H38 UNL A   1      15.891  23.490   1.225  1.00  0.00    +0.000 H 
ATOM    131  H39 UNL A   1      20.011  16.715   7.396  1.00  0.00    +0.000 H 
ATOM    132  H40 UNL A   1      22.325  17.715   6.947  1.00  0.00    +0.000 H 
ATOM     31  C26 UNL A   1      22.325  19.758   4.958  1.00  0.00    +0.000 C 
ATOM     32  C27 UNL A   1      21.138  19.047   5.547  1.00  0.00    +0.000 C 
ATOM     33  N3  UNL A   1      19.864  19.205   5.284  1.00  0.00    +0.000 N 
ATOM     34  C28 UNL A   1      19.198  18.270   6.067  1.00  0.00    +0.000 C 
ATOM     35  C29 UNL A   1      17.864  18.071   6.190  1.00  0.00    +0.000 C 
ATOM     47  C36 UNL A   1      16.860  18.842   5.505  1.00  0.00    +0.000 C 
ATOM     48  C37 UNL A   1      15.483  18.764   5.622  1.00  0.00    +0.000 C 
ATOM     49  C38 UNL A   1      14.915  19.684   4.732  1.00  0.00    +0.000 C 
ATOM     50  C39 UNL A   1      15.939  20.364   4.093  1.00  0.00    +0.000 C 
ATOM     51  N4  UNL A   1      17.127  19.835   4.574  1.00  0.00    +0.000 N 
ATOM     52  C40 UNL A   1      15.843  21.416   3.115  1.00  0.00    +0.000 C 
ATOM     64  C47 UNL A   1      16.899  22.043   2.542  1.00  0.00    +0.000 C 
ATOM     65  N5  UNL A   1      18.256  21.834   2.752  1.00  0.00    +0.000 N 
ATOM     66  C48 UNL A   1      18.875  22.673   1.957  1.00  0.00    +0.000 C 
ATOM     67  C49 UNL A   1      20.351  22.902   1.786  1.00  0.00    +0.000 C 
ATOM     79  C56 UNL A   1      21.219  22.204   2.543  1.00  0.00    +0.000 C 
ATOM     80  C57 UNL A   1      22.673  22.327   2.495  1.00  0.00    +0.000 C 
ATOM     81  C58 UNL A   1      23.215  21.448   3.354  1.00  0.00    +0.000 C 
ATOM     82  C59 UNL A   1      22.144  20.721   4.035  1.00  0.00    +0.000 C 
ATOM     83  N6  UNL A   1      20.994  21.243   3.499  1.00  0.00    +0.000 N 
ATOM     84  C60 UNL A   1      17.977  23.494   1.133  1.00  0.00    +0.000 C 
ATOM     85  C61 UNL A   1      16.786  23.098   1.556  1.00  0.00    +0.000 C 
ATOM     86  C62 UNL A   1      20.208  17.520   6.781  1.00  0.00    +0.000 C 
ATOM     87  C63 UNL A   1      21.420  18.001   6.541  1.00  0.00    +0.000 C 
ATOM    123  H31 UNL A   1      14.964  18.137   6.256  1.00  0.00    +0.000 H 
ATOM    124  H32 UNL A   1      13.905  19.830   4.579  1.00  0.00    +0.000 H 
ATOM    125  H33 UNL A   1      18.027  20.123   4.296  1.00  0.00    +0.000 H 
ATOM    126  H34 UNL A   1      23.199  22.984   1.898  1.00  0.00    +0.000 H 
ATOM    127  H35 UNL A   1      24.226  21.308   3.508  1.00  0.00    +0.000 H 
ATOM    128  H36 UNL A   1      20.092  20.957   3.773  1.00  0.00    +0.000 H 
ENDROOT
BRANCH   31   30
ATOM    133  H41 UNL A   1      23.894  17.924   3.790  1.00  0.00    +0.000 H 
ATOM    134  H42 UNL A   1      26.123  17.212   4.421  1.00  0.00    +0.000 H 
ATOM     29  C24 UNL A   1      24.363  19.955   6.420  1.00  0.00    +0.000 C 
ATOM     88  C64 UNL A   1      24.369  18.369   4.591  1.00  0.00    +0.000 C 
ATOM     89  C65 UNL A   1      25.666  17.985   4.929  1.00  0.00    +0.000 C 
ATOM    122  H30 UNL A   1      23.869  20.651   7.000  1.00  0.00    +0.000 H 
ATOM     27  C22 UNL A   1      26.345  18.647   5.955  1.00  0.00    +0.000 C 
ATOM     28  C23 UNL A   1      25.683  19.612   6.720  1.00  0.00    +0.000 C 
ATOM    121  H29 UNL A   1      26.171  20.073   7.505  1.00  0.00    +0.000 H 
ATOM     30  C25 UNL A   1      23.704  19.356   5.335  1.00  0.00    +0.000 C 
BRANCH   27   25
ATOM     25  C21 UNL A   1      27.748  18.309   6.293  1.00  0.00    +0.000 C 
ATOM     26  O2  UNL A   1      28.655  19.038   5.913  1.00  0.00    +0.000 O 
BRANCH   25   24
ATOM    120  H28 UNL A   1      27.871  16.330   6.574  1.00  0.00    +0.000 H 
ATOM     24  N2  UNL A   1      28.035  17.186   7.031  1.00  0.00    +0.000 N 
BRANCH   24   23
ATOM    119  H27 UNL A   1      29.594  17.297   8.365  1.00  0.00    +0.000 H 
ATOM    118  H26 UNL A   1      28.367  16.084   8.745  1.00  0.00    +0.000 H 
ATOM     23  C20 UNL A   1      28.547  17.076   8.388  1.00  0.00    +0.000 C 
BRANCH   23   22
ATOM    116  H24 UNL A   1      27.056  18.520   8.819  1.00  0.00    +0.000 H 
ATOM    117  H25 UNL A   1      27.579  17.508  10.197  1.00  0.00    +0.000 H 
ATOM     22  C19 UNL A   1      27.877  18.070   9.336  1.00  0.00    +0.000 C 
BRANCH   22   21
ATOM    114  H22 UNL A   1      29.564  18.742  10.434  1.00  0.00    +0.000 H 
ATOM    115  H23 UNL A   1      29.140  19.701   8.978  1.00  0.00    +0.000 H 
ATOM     21  C18 UNL A   1      28.788  19.191   9.849  1.00  0.00    +0.000 C 
BRANCH   21   20
ATOM    113  H21 UNL A   1      28.668  21.160  10.569  1.00  0.00    +0.000 H 
ATOM     20  C17 UNL A   1      28.106  20.260  10.713  1.00  0.00    +0.000 C 
ATOM    112  H20 UNL A   1      28.102  19.915  11.726  1.00  0.00    +0.000 H 
BRANCH   20   19
ATOM     19  C16 UNL A   1      26.662  20.597  10.323  1.00  0.00    +0.000 C 
ATOM    110  H18 UNL A   1      26.667  21.004   9.334  1.00  0.00    +0.000 H 
ATOM    111  H19 UNL A   1      26.104  19.687  10.390  1.00  0.00    +0.000 H 
BRANCH   19   18
ATOM     18  C15 UNL A   1      25.985  21.602  11.255  1.00  0.00    +0.000 C 
ATOM    108  H16 UNL A   1      26.655  22.418  11.429  1.00  0.00    +0.000 H 
ATOM    109  H17 UNL A   1      25.084  21.936  10.784  1.00  0.00    +0.000 H 
BRANCH   18   17
ATOM     17  N1  UNL A   1      25.631  21.009  12.527  1.00  0.00    +0.000 N 
ATOM    107  H15 UNL A   1      25.737  21.607  13.300  1.00  0.00    +0.000 H 
BRANCH   17   15
ATOM     15  C14 UNL A   1      25.176  19.763  12.836  1.00  0.00    +0.000 C 
ATOM     16  O1  UNL A   1      25.974  19.012  13.410  1.00  0.00    +0.000 O 
BRANCH   15   13
ATOM     13  C12 UNL A   1      23.765  19.263  12.489  1.00  0.00    +0.000 C 
ATOM    103  H11 UNL A   1      23.285  20.080  11.993  1.00  0.00    +0.000 H 
BRANCH   13   12
ATOM    101  H9  UNL A   1      24.265  17.534   8.181  1.00  0.00    +0.000 H 
ATOM    102  H10 UNL A   1      24.513  19.279   9.825  1.00  0.00    +0.000 H 
ATOM    135  H43 UNL A   1      23.042  16.696  12.780  1.00  0.00    +0.000 H 
ATOM    136  H44 UNL A   1      22.950  14.906  11.168  1.00  0.00    +0.000 H 
ATOM      9  C8  UNL A   1      23.564  16.055   9.509  1.00  0.00    +0.000 C 
ATOM     10  C9  UNL A   1      24.014  17.339   9.163  1.00  0.00    +0.000 C 
ATOM     11  C10 UNL A   1      24.136  18.363  10.112  1.00  0.00    +0.000 C 
ATOM     12  C11 UNL A   1      23.754  18.162  11.441  1.00  0.00    +0.000 C 
ATOM     90  C66 UNL A   1      23.317  16.881  11.802  1.00  0.00    +0.000 C 
ATOM     91  C67 UNL A   1      23.244  15.845  10.861  1.00  0.00    +0.000 C 
BRANCH    9    8
ATOM     98  H6  UNL A   1      23.092  12.180   5.849  1.00  0.00    +0.000 H 
ATOM     99  H7  UNL A   1      22.398  11.783   8.137  1.00  0.00    +0.000 H 
ATOM      4  C3  UNL A   1      23.691  14.173   6.188  1.00  0.00    +0.000 C 
ATOM      5  C4  UNL A   1      23.176  12.930   6.552  1.00  0.00    +0.000 C 
ATOM      6  C5  UNL A   1      22.777  12.703   7.867  1.00  0.00    +0.000 C 
ATOM      7  C6  UNL A   1      22.888  13.720   8.820  1.00  0.00    +0.000 C 
ATOM      8  C7  UNL A   1      23.413  14.984   8.492  1.00  0.00    +0.000 C 
ATOM    137  H45 UNL A   1      24.180  16.103   6.874  1.00  0.00    +0.000 H 
ATOM    100  H8  UNL A   1      22.577  13.540   9.787  1.00  0.00    +0.000 H 
ATOM     92  C68 UNL A   1      23.802  15.185   7.153  1.00  0.00    +0.000 C 
BRANCH    4    3
ATOM      3  S1  UNL A   1      24.125  14.500   4.491  1.00  0.00    +0.000 S 
BRANCH    3    2
ATOM     97  H5  UNL A   1      23.019  12.403   4.297  1.00  0.00    +0.000 H 
ATOM      2  C2  UNL A   1      23.117  13.241   3.638  1.00  0.00    +0.000 C 
ATOM     96  H4  UNL A   1      23.606  12.970   2.726  1.00  0.00    +0.000 H 
BRANCH    2    1
ATOM      1  C1  UNL A   1      21.719  13.735   3.312  1.00  0.00    +0.000 C 
ATOM     93  H1  UNL A   1      21.119  13.721   4.199  1.00  0.00    +0.000 H 
ATOM     94  H2  UNL A   1      21.278  13.098   2.574  1.00  0.00    +0.000 H 
ATOM     95  H3  UNL A   1      21.772  14.735   2.934  1.00  0.00    +0.000 H 
ENDBRANCH    2    1
ENDBRANCH    3    2
ENDBRANCH    4    3
ENDBRANCH    9    8
ENDBRANCH   13   12
BRANCH   13   14
ATOM    105  H13 UNL A   1      23.264  18.278  14.320  1.00  0.00    +0.000 H 
ATOM    106  H14 UNL A   1      21.881  18.760  13.368  1.00  0.00    +0.000 H 
ATOM     14  C13 UNL A   1      22.855  19.049  13.701  1.00  0.00    +0.000 C 
ATOM    104  H12 UNL A   1      22.787  19.958  14.260  1.00  0.00    +0.000 H 
ENDBRANCH   13   14
ENDBRANCH   15   13
ENDBRANCH   17   15
ENDBRANCH   18   17
ENDBRANCH   19   18
ENDBRANCH   20   19
ENDBRANCH   21   20
ENDBRANCH   22   21
ENDBRANCH   23   22
ENDBRANCH   24   23
ENDBRANCH   25   24
ENDBRANCH   27   25
ENDBRANCH   31   30
BRANCH   35   36
ATOM     36  C30 UNL A   1      17.407  16.974   7.107  1.00  0.00    +0.000 C 
ATOM     37  C31 UNL A   1      17.385  15.634   6.695  1.00  0.00    +0.000 C 
ATOM     38  F1  UNL A   1      17.725  15.308   5.439  1.00  0.00    +0.000 F 
ATOM     39  C32 UNL A   1      16.980  14.623   7.564  1.00  0.00    +0.000 C 
ATOM     40  F2  UNL A   1      16.928  13.354   7.136  1.00  0.00    +0.000 F 
ATOM     41  C33 UNL A   1      16.622  14.930   8.868  1.00  0.00    +0.000 C 
ATOM     42  F3  UNL A   1      16.241  13.956   9.707  1.00  0.00    +0.000 F 
ATOM     43  C34 UNL A   1      16.653  16.247   9.303  1.00  0.00    +0.000 C 
ATOM     44  F4  UNL A   1      16.317  16.542  10.566  1.00  0.00    +0.000 F 
ATOM     45  C35 UNL A   1      17.031  17.262   8.428  1.00  0.00    +0.000 C 
ATOM     46  F5  UNL A   1      17.040  18.527   8.874  1.00  0.00    +0.000 F 
ENDBRANCH   35   36
BRANCH   52   53
ATOM     53  C41 UNL A   1      14.473  21.872   2.709  1.00  0.00    +0.000 C 
ATOM     54  C42 UNL A   1      13.770  22.831   3.452  1.00  0.00    +0.000 C 
ATOM     55  F6  UNL A   1      14.294  23.327   4.582  1.00  0.00    +0.000 F 
ATOM     56  C43 UNL A   1      12.506  23.256   3.053  1.00  0.00    +0.000 C 
ATOM     57  F7  UNL A   1      11.831  24.142   3.801  1.00  0.00    +0.000 F 
ATOM     58  C44 UNL A   1      11.935  22.755   1.891  1.00  0.00    +0.000 C 
ATOM     59  F8  UNL A   1      10.721  23.171   1.508  1.00  0.00    +0.000 F 
ATOM     60  C45 UNL A   1      12.621  21.820   1.134  1.00  0.00    +0.000 C 
ATOM     61  F9  UNL A   1      12.077  21.343   0.005  1.00  0.00    +0.000 F 
ATOM     62  C46 UNL A   1      13.875  21.372   1.543  1.00  0.00    +0.000 C 
ATOM     63  F10 UNL A   1      14.510  20.458   0.796  1.00  0.00    +0.000 F 
ENDBRANCH   52   53
BRANCH   67   68
ATOM     68  C50 UNL A   1      20.859  23.903   0.814  1.00  0.00    +0.000 C 
ATOM     69  C51 UNL A   1      21.028  23.570  -0.537  1.00  0.00    +0.000 C 
ATOM     70  F11 UNL A   1      20.753  22.328  -0.959  1.00  0.00    +0.000 F 
ATOM     71  C52 UNL A   1      21.519  24.501  -1.450  1.00  0.00    +0.000 C 
ATOM     72  F12 UNL A   1      21.711  24.144  -2.729  1.00  0.00    +0.000 F 
ATOM     73  C53 UNL A   1      21.822  25.789  -1.037  1.00  0.00    +0.000 C 
ATOM     74  F13 UNL A   1      22.290  26.684  -1.917  1.00  0.00    +0.000 F 
ATOM     75  C54 UNL A   1      21.647  26.146   0.292  1.00  0.00    +0.000 C 
ATOM     76  F14 UNL A   1      21.926  27.393   0.693  1.00  0.00    +0.000 F 
ATOM     77  C55 UNL A   1      21.180  25.209   1.211  1.00  0.00    +0.000 C 
ATOM     78  F15 UNL A   1      21.029  25.578   2.492  1.00  0.00    +0.000 F 
ENDBRANCH   67   68
TORSDOF 21
ENDMDL
MODEL 4
REMARK VINA RESULT:      -8.6     41.039     46.893
ROOT
ATOM    129  H37 UNL A   1      19.039  36.307  48.758  1.00  0.00    +0.000 H 
ATOM    130  H38 UNL A   1      19.474  34.498  47.002  1.00  0.00    +0.000 H 
ATOM    131  H39 UNL A   1      29.292  36.632  47.117  1.00  0.00    +0.000 H 
ATOM    132  H40 UNL A   1      28.947  38.105  49.182  1.00  0.00    +0.000 H 
ATOM     31  C26 UNL A   1      26.212  38.409  49.929  1.00  0.00    +0.000 C 
ATOM     32  C27 UNL A   1      26.779  37.528  48.850  1.00  0.00    +0.000 C 
ATOM     33  N3  UNL A   1      26.156  36.719  48.030  1.00  0.00    +0.000 N 
ATOM     34  C28 UNL A   1      27.138  36.185  47.206  1.00  0.00    +0.000 C 
ATOM     35  C29 UNL A   1      27.007  35.259  46.227  1.00  0.00    +0.000 C 
ATOM     47  C36 UNL A   1      25.764  34.629  45.866  1.00  0.00    +0.000 C 
ATOM     48  C37 UNL A   1      25.542  33.626  44.938  1.00  0.00    +0.000 C 
ATOM     49  C38 UNL A   1      24.168  33.360  44.901  1.00  0.00    +0.000 C 
ATOM     50  C39 UNL A   1      23.540  34.168  45.834  1.00  0.00    +0.000 C 
ATOM     51  N4  UNL A   1      24.530  34.944  46.416  1.00  0.00    +0.000 N 
ATOM     52  C40 UNL A   1      22.142  34.230  46.171  1.00  0.00    +0.000 C 
ATOM     64  C47 UNL A   1      21.604  35.045  47.111  1.00  0.00    +0.000 C 
ATOM     65  N5  UNL A   1      22.240  35.964  47.935  1.00  0.00    +0.000 N 
ATOM     66  C48 UNL A   1      21.294  36.512  48.659  1.00  0.00    +0.000 C 
ATOM     67  C49 UNL A   1      21.408  37.554  49.737  1.00  0.00    +0.000 C 
ATOM     79  C56 UNL A   1      22.626  38.015  50.081  1.00  0.00    +0.000 C 
ATOM     80  C57 UNL A   1      22.891  39.014  51.111  1.00  0.00    +0.000 C 
ATOM     81  C58 UNL A   1      24.211  39.263  51.150  1.00  0.00    +0.000 C 
ATOM     82  C59 UNL A   1      24.887  38.417  50.166  1.00  0.00    +0.000 C 
ATOM     83  N6  UNL A   1      23.869  37.702  49.586  1.00  0.00    +0.000 N 
ATOM     84  C60 UNL A   1      19.944  36.016  48.357  1.00  0.00    +0.000 C 
ATOM     85  C61 UNL A   1      20.193  35.098  47.434  1.00  0.00    +0.000 C 
ATOM     86  C62 UNL A   1      28.392  36.793  47.595  1.00  0.00    +0.000 C 
ATOM     87  C63 UNL A   1      28.234  37.585  48.647  1.00  0.00    +0.000 C 
ATOM    123  H31 UNL A   1      26.264  33.154  44.372  1.00  0.00    +0.000 H 
ATOM    124  H32 UNL A   1      23.703  32.678  44.282  1.00  0.00    +0.000 H 
ATOM    125  H33 UNL A   1      24.380  35.618  47.118  1.00  0.00    +0.000 H 
ATOM    126  H34 UNL A   1      22.181  39.457  51.713  1.00  0.00    +0.000 H 
ATOM    127  H35 UNL A   1      24.674  39.943  51.774  1.00  0.00    +0.000 H 
ATOM    128  H36 UNL A   1      24.015  37.028  48.884  1.00  0.00    +0.000 H 
ENDROOT
BRANCH   31   30
ATOM    133  H41 UNL A   1      26.860  40.946  49.349  1.00  0.00    +0.000 H 
ATOM    134  H42 UNL A   1      28.344  42.443  50.545  1.00  0.00    +0.000 H 
ATOM     29  C24 UNL A   1      27.716  38.916  51.881  1.00  0.00    +0.000 C 
ATOM     88  C64 UNL A   1      27.312  40.633  50.222  1.00  0.00    +0.000 C 
ATOM     89  C65 UNL A   1      28.136  41.508  50.929  1.00  0.00    +0.000 C 
ATOM    122  H30 UNL A   1      27.598  37.946  52.212  1.00  0.00    +0.000 H 
ATOM     27  C22 UNL A   1      28.677  41.120  52.157  1.00  0.00    +0.000 C 
ATOM     28  C23 UNL A   1      28.491  39.814  52.619  1.00  0.00    +0.000 C 
ATOM    121  H29 UNL A   1      28.925  39.512  53.506  1.00  0.00    +0.000 H 
ATOM     30  C25 UNL A   1      27.096  39.327  50.690  1.00  0.00    +0.000 C 
BRANCH   27   25
ATOM     25  C21 UNL A   1      29.500  42.051  52.965  1.00  0.00    +0.000 C 
ATOM     26  O2  UNL A   1      28.978  43.035  53.473  1.00  0.00    +0.000 O 
BRANCH   25   24
ATOM    120  H28 UNL A   1      31.074  41.346  53.982  1.00  0.00    +0.000 H 
ATOM     24  N2  UNL A   1      30.841  41.816  53.149  1.00  0.00    +0.000 N 
BRANCH   24   23
ATOM    119  H27 UNL A   1      32.409  41.248  51.949  1.00  0.00    +0.000 H 
ATOM    118  H26 UNL A   1      32.665  42.738  52.861  1.00  0.00    +0.000 H 
ATOM     23  C20 UNL A   1      31.967  42.159  52.294  1.00  0.00    +0.000 C 
BRANCH   23   22
ATOM    116  H24 UNL A   1      30.541  43.325  51.245  1.00  0.00    +0.000 H 
ATOM    117  H25 UNL A   1      32.255  43.751  50.961  1.00  0.00    +0.000 H 
ATOM     22  C19 UNL A   1      31.535  42.967  51.072  1.00  0.00    +0.000 C 
BRANCH   22   21
ATOM    114  H22 UNL A   1      30.529  42.152  49.390  1.00  0.00    +0.000 H 
ATOM    115  H23 UNL A   1      32.208  42.718  49.105  1.00  0.00    +0.000 H 
ATOM     21  C18 UNL A   1      31.536  42.192  49.749  1.00  0.00    +0.000 C 
BRANCH   21   20
ATOM    113  H21 UNL A   1      32.164  40.525  50.862  1.00  0.00    +0.000 H 
ATOM     20  C17 UNL A   1      32.068  40.754  49.821  1.00  0.00    +0.000 C 
ATOM    112  H20 UNL A   1      32.994  40.717  49.286  1.00  0.00    +0.000 H 
BRANCH   20   19
ATOM     19  C16 UNL A   1      31.141  39.682  49.236  1.00  0.00    +0.000 C 
ATOM    110  H18 UNL A   1      30.729  39.116  50.044  1.00  0.00    +0.000 H 
ATOM    111  H19 UNL A   1      30.394  40.195  48.669  1.00  0.00    +0.000 H 
BRANCH   19   18
ATOM     18  C15 UNL A   1      31.838  38.714  48.278  1.00  0.00    +0.000 C 
ATOM    108  H16 UNL A   1      32.376  37.988  48.851  1.00  0.00    +0.000 H 
ATOM    109  H17 UNL A   1      31.088  38.250  47.672  1.00  0.00    +0.000 H 
BRANCH   18   17
ATOM     17  N1  UNL A   1      32.764  39.396  47.399  1.00  0.00    +0.000 N 
ATOM    107  H15 UNL A   1      33.629  39.618  47.811  1.00  0.00    +0.000 H 
BRANCH   17   15
ATOM     15  C14 UNL A   1      32.643  39.780  46.098  1.00  0.00    +0.000 C 
ATOM     16  O1  UNL A   1      33.214  39.071  45.260  1.00  0.00    +0.000 O 
BRANCH   15   13
ATOM     13  C12 UNL A   1      31.873  41.031  45.648  1.00  0.00    +0.000 C 
ATOM    103  H11 UNL A   1      31.981  41.067  44.584  1.00  0.00    +0.000 H 
BRANCH   13   12
ATOM    101  H9  UNL A   1      27.745  42.277  47.439  1.00  0.00    +0.000 H 
ATOM    102  H10 UNL A   1      30.087  42.648  47.008  1.00  0.00    +0.000 H 
ATOM    135  H43 UNL A   1      30.204  39.170  44.674  1.00  0.00    +0.000 H 
ATOM    136  H44 UNL A   1      27.828  38.891  44.971  1.00  0.00    +0.000 H 
ATOM      9  C8  UNL A   1      27.561  40.537  46.264  1.00  0.00    +0.000 C 
ATOM     10  C9  UNL A   1      28.256  41.615  46.834  1.00  0.00    +0.000 C 
ATOM     11  C10 UNL A   1      29.624  41.819  46.606  1.00  0.00    +0.000 C 
ATOM     12  C11 UNL A   1      30.370  40.918  45.843  1.00  0.00    +0.000 C 
ATOM     90  C66 UNL A   1      29.685  39.845  45.256  1.00  0.00    +0.000 C 
ATOM     91  C67 UNL A   1      28.307  39.672  45.445  1.00  0.00    +0.000 C 
BRANCH    9    8
ATOM     98  H6  UNL A   1      22.344  39.782  47.184  1.00  0.00    +0.000 H 
ATOM     99  H7  UNL A   1      23.562  38.246  45.758  1.00  0.00    +0.000 H 
ATOM      4  C3  UNL A   1      24.014  41.000  47.601  1.00  0.00    +0.000 C 
ATOM      5  C4  UNL A   1      23.352  39.924  47.013  1.00  0.00    +0.000 C 
ATOM      6  C5  UNL A   1      24.052  39.041  46.195  1.00  0.00    +0.000 C 
ATOM      7  C6  UNL A   1      25.419  39.231  45.966  1.00  0.00    +0.000 C 
ATOM      8  C7  UNL A   1      26.118  40.313  46.533  1.00  0.00    +0.000 C 
ATOM    137  H45 UNL A   1      25.867  41.980  47.804  1.00  0.00    +0.000 H 
ATOM    100  H8  UNL A   1      25.926  38.563  45.366  1.00  0.00    +0.000 H 
ATOM     92  C68 UNL A   1      25.383  41.184  47.361  1.00  0.00    +0.000 C 
BRANCH    4    3
ATOM      3  S1  UNL A   1      23.146  42.084  48.717  1.00  0.00    +0.000 S 
BRANCH    3    2
ATOM     97  H5  UNL A   1      24.521  43.547  47.443  1.00  0.00    +0.000 H 
ATOM      2  C2  UNL A   1      23.690  43.711  48.098  1.00  0.00    +0.000 C 
ATOM     96  H4  UNL A   1      23.961  44.322  48.934  1.00  0.00    +0.000 H 
BRANCH    2    1
ATOM      1  C1  UNL A   1      22.612  44.424  47.303  1.00  0.00    +0.000 C 
ATOM     93  H1  UNL A   1      23.065  44.994  46.518  1.00  0.00    +0.000 H 
ATOM     94  H2  UNL A   1      22.066  45.080  47.949  1.00  0.00    +0.000 H 
ATOM     95  H3  UNL A   1      21.944  43.704  46.880  1.00  0.00    +0.000 H 
ENDBRANCH    2    1
ENDBRANCH    3    2
ENDBRANCH    4    3
ENDBRANCH    9    8
ENDBRANCH   13   12
BRANCH   13   14
ATOM    105  H13 UNL A   1      32.045  43.160  45.550  1.00  0.00    +0.000 H 
ATOM    106  H14 UNL A   1      33.556  42.336  45.851  1.00  0.00    +0.000 H 
ATOM     14  C13 UNL A   1      32.511  42.354  46.077  1.00  0.00    +0.000 C 
ATOM    104  H12 UNL A   1      32.375  42.490  47.129  1.00  0.00    +0.000 H 
ENDBRANCH   13   14
ENDBRANCH   15   13
ENDBRANCH   17   15
ENDBRANCH   18   17
ENDBRANCH   19   18
ENDBRANCH   20   19
ENDBRANCH   21   20
ENDBRANCH   22   21
ENDBRANCH   23   22
ENDBRANCH   24   23
ENDBRANCH   25   24
ENDBRANCH   27   25
ENDBRANCH   31   30
BRANCH   35   36
ATOM     36  C30 UNL A   1      28.243  34.861  45.475  1.00  0.00    +0.000 C 
ATOM     37  C31 UNL A   1      29.041  33.785  45.890  1.00  0.00    +0.000 C 
ATOM     38  F1  UNL A   1      28.742  33.117  47.014  1.00  0.00    +0.000 F 
ATOM     39  C32 UNL A   1      30.173  33.412  45.170  1.00  0.00    +0.000 C 
ATOM     40  F2  UNL A   1      30.944  32.408  45.609  1.00  0.00    +0.000 F 
ATOM     41  C33 UNL A   1      30.509  34.085  44.005  1.00  0.00    +0.000 C 
ATOM     42  F3  UNL A   1      31.594  33.720  43.307  1.00  0.00    +0.000 F 
ATOM     43  C34 UNL A   1      29.724  35.140  43.565  1.00  0.00    +0.000 C 
ATOM     44  F4  UNL A   1      30.042  35.784  42.434  1.00  0.00    +0.000 F 
ATOM     45  C35 UNL A   1      28.607  35.533  44.298  1.00  0.00    +0.000 C 
ATOM     46  F5  UNL A   1      27.874  36.565  43.854  1.00  0.00    +0.000 F 
ENDBRANCH   35   36
BRANCH   52   53
ATOM     53  C41 UNL A   1      21.205  33.313  45.443  1.00  0.00    +0.000 C 
ATOM     54  C42 UNL A   1      21.098  31.956  45.779  1.00  0.00    +0.000 C 
ATOM     55  F6  UNL A   1      21.880  31.435  46.737  1.00  0.00    +0.000 F 
ATOM     56  C43 UNL A   1      20.212  31.120  45.105  1.00  0.00    +0.000 C 
ATOM     57  F7  UNL A   1      20.157  29.817  45.413  1.00  0.00    +0.000 F 
ATOM     58  C44 UNL A   1      19.396  31.630  44.105  1.00  0.00    +0.000 C 
ATOM     59  F8  UNL A   1      18.541  30.825  43.462  1.00  0.00    +0.000 F 
ATOM     60  C45 UNL A   1      19.473  32.973  43.769  1.00  0.00    +0.000 C 
ATOM     61  F9  UNL A   1      18.678  33.470  42.811  1.00  0.00    +0.000 F 
ATOM     62  C46 UNL A   1      20.377  33.806  44.423  1.00  0.00    +0.000 C 
ATOM     63  F10 UNL A   1      20.438  35.098  44.068  1.00  0.00    +0.000 F 
ENDBRANCH   52   53
BRANCH   67   68
ATOM     68  C50 UNL A   1      20.202  38.058  50.439  1.00  0.00    +0.000 C 
ATOM     69  C51 UNL A   1      19.527  39.197  49.980  1.00  0.00    +0.000 C 
ATOM     70  F11 UNL A   1      19.984  39.858  48.907  1.00  0.00    +0.000 F 
ATOM     71  C52 UNL A   1      18.404  39.684  50.645  1.00  0.00    +0.000 C 
ATOM     72  F12 UNL A   1      17.801  40.800  50.208  1.00  0.00    +0.000 F 
ATOM     73  C53 UNL A   1      17.917  39.026  51.764  1.00  0.00    +0.000 C 
ATOM     74  F13 UNL A   1      16.834  39.492  52.399  1.00  0.00    +0.000 F 
ATOM     75  C54 UNL A   1      18.559  37.887  52.227  1.00  0.00    +0.000 C 
ATOM     76  F14 UNL A   1      18.084  37.240  53.300  1.00  0.00    +0.000 F 
ATOM     77  C55 UNL A   1      19.697  37.413  51.577  1.00  0.00    +0.000 C 
ATOM     78  F15 UNL A   1      20.304  36.315  52.052  1.00  0.00    +0.000 F 
ENDBRANCH   67   68
TORSDOF 21
ENDMDL
MODEL 5
REMARK VINA RESULT:      -8.6     44.885     52.705
ROOT
ATOM    129  H37 UNL A   1      52.096  14.991  50.506  1.00  0.00    +0.000 H 
ATOM    130  H38 UNL A   1      52.680  13.343  52.374  1.00  0.00    +0.000 H 
ATOM    131  H39 UNL A   1      44.888   7.541  49.807  1.00  0.00    +0.000 H 
ATOM    132  H40 UNL A   1      44.569   8.917  47.671  1.00  0.00    +0.000 H 
ATOM     31  C26 UNL A   1      46.287  11.186  47.502  1.00  0.00    +0.000 C 
ATOM     32  C27 UNL A   1      46.288  10.108  48.550  1.00  0.00    +0.000 C 
ATOM     33  N3  UNL A   1      47.063   9.972  49.597  1.00  0.00    +0.000 N 
ATOM     34  C28 UNL A   1      46.611   8.836  50.257  1.00  0.00    +0.000 C 
ATOM     35  C29 UNL A   1      47.117   8.248  51.367  1.00  0.00    +0.000 C 
ATOM     47  C36 UNL A   1      48.276   8.719  52.080  1.00  0.00    +0.000 C 
ATOM     48  C37 UNL A   1      48.908   8.150  53.172  1.00  0.00    +0.000 C 
ATOM     49  C38 UNL A   1      49.969   8.983  53.547  1.00  0.00    +0.000 C 
ATOM     50  C39 UNL A   1      50.023  10.048  52.663  1.00  0.00    +0.000 C 
ATOM     51  N4  UNL A   1      48.976   9.876  51.771  1.00  0.00    +0.000 N 
ATOM     52  C40 UNL A   1      50.957  11.143  52.634  1.00  0.00    +0.000 C 
ATOM     64  C47 UNL A   1      50.951  12.147  51.724  1.00  0.00    +0.000 C 
ATOM     65  N5  UNL A   1      50.089  12.347  50.653  1.00  0.00    +0.000 N 
ATOM     66  C48 UNL A   1      50.481  13.459  50.080  1.00  0.00    +0.000 C 
ATOM     67  C49 UNL A   1      49.927  14.143  48.861  1.00  0.00    +0.000 C 
ATOM     79  C56 UNL A   1      48.903  13.577  48.195  1.00  0.00    +0.000 C 
ATOM     80  C57 UNL A   1      48.272  14.117  46.995  1.00  0.00    +0.000 C 
ATOM     81  C58 UNL A   1      47.258  13.313  46.633  1.00  0.00    +0.000 C 
ATOM     82  C59 UNL A   1      47.188  12.184  47.561  1.00  0.00    +0.000 C 
ATOM     83  N6  UNL A   1      48.210  12.418  48.448  1.00  0.00    +0.000 N 
ATOM     84  C60 UNL A   1      51.625  14.103  50.739  1.00  0.00    +0.000 C 
ATOM     85  C61 UNL A   1      51.896  13.244  51.711  1.00  0.00    +0.000 C 
ATOM     86  C62 UNL A   1      45.469   8.344  49.518  1.00  0.00    +0.000 C 
ATOM     87  C63 UNL A   1      45.265   9.059  48.420  1.00  0.00    +0.000 C 
ATOM    123  H31 UNL A   1      48.644   7.264  53.630  1.00  0.00    +0.000 H 
ATOM    124  H32 UNL A   1      50.603   8.828  54.346  1.00  0.00    +0.000 H 
ATOM    125  H33 UNL A   1      48.763  10.484  51.026  1.00  0.00    +0.000 H 
ATOM    126  H34 UNL A   1      48.559  14.978  46.503  1.00  0.00    +0.000 H 
ATOM    127  H35 UNL A   1      46.629  13.469  45.830  1.00  0.00    +0.000 H 
ATOM    128  H36 UNL A   1      48.425  11.812  49.193  1.00  0.00    +0.000 H 
ENDROOT
BRANCH   31   30
ATOM    133  H41 UNL A   1      43.970  12.535  47.462  1.00  0.00    +0.000 H 
ATOM    134  H42 UNL A   1      42.239  12.527  45.765  1.00  0.00    +0.000 H 
ATOM     29  C24 UNL A   1      45.409  10.450  45.262  1.00  0.00    +0.000 C 
ATOM     88  C64 UNL A   1      44.095  11.979  46.602  1.00  0.00    +0.000 C 
ATOM     89  C65 UNL A   1      43.116  12.006  45.610  1.00  0.00    +0.000 C 
ATOM    122  H30 UNL A   1      46.234   9.840  45.149  1.00  0.00    +0.000 H 
ATOM     27  C22 UNL A   1      43.322  11.327  44.406  1.00  0.00    +0.000 C 
ATOM     28  C23 UNL A   1      44.456  10.526  44.243  1.00  0.00    +0.000 C 
ATOM    121  H29 UNL A   1      44.590   9.990  43.370  1.00  0.00    +0.000 H 
ATOM     30  C25 UNL A   1      45.250  11.199  46.438  1.00  0.00    +0.000 C 
BRANCH   27   25
ATOM     25  C21 UNL A   1      42.332  11.392  43.306  1.00  0.00    +0.000 C 
ATOM     26  O2  UNL A   1      41.384  10.617  43.297  1.00  0.00    +0.000 O 
BRANCH   25   24
ATOM    120  H28 UNL A   1      43.192  12.134  41.657  1.00  0.00    +0.000 H 
ATOM     24  N2  UNL A   1      42.469  12.317  42.299  1.00  0.00    +0.000 N 
BRANCH   24   23
ATOM    119  H27 UNL A   1      40.709  13.237  41.774  1.00  0.00    +0.000 H 
ATOM    118  H26 UNL A   1      42.175  14.073  41.254  1.00  0.00    +0.000 H 
ATOM     23  C20 UNL A   1      41.703  13.527  42.043  1.00  0.00    +0.000 C 
BRANCH   23   22
ATOM    116  H24 UNL A   1      40.613  14.794  43.347  1.00  0.00    +0.000 H 
ATOM    117  H25 UNL A   1      41.899  13.813  44.110  1.00  0.00    +0.000 H 
ATOM     22  C19 UNL A   1      41.615  14.423  43.278  1.00  0.00    +0.000 C 
BRANCH   22   21
ATOM    114  H22 UNL A   1      42.186  16.346  42.588  1.00  0.00    +0.000 H 
ATOM    115  H23 UNL A   1      42.606  15.964  44.290  1.00  0.00    +0.000 H 
ATOM     21  C18 UNL A   1      42.568  15.623  43.277  1.00  0.00    +0.000 C 
BRANCH   21   20
ATOM    113  H21 UNL A   1      44.439  16.248  42.557  1.00  0.00    +0.000 H 
ATOM     20  C17 UNL A   1      44.020  15.319  42.885  1.00  0.00    +0.000 C 
ATOM    112  H20 UNL A   1      44.007  14.564  42.127  1.00  0.00    +0.000 H 
BRANCH   20   19
ATOM     19  C16 UNL A   1      44.920  14.829  44.026  1.00  0.00    +0.000 C 
ATOM    110  H18 UNL A   1      44.356  14.855  44.934  1.00  0.00    +0.000 H 
ATOM    111  H19 UNL A   1      45.238  13.842  43.766  1.00  0.00    +0.000 H 
BRANCH   19   18
ATOM     18  C15 UNL A   1      46.186  15.665  44.221  1.00  0.00    +0.000 C 
ATOM    108  H16 UNL A   1      46.695  15.322  45.098  1.00  0.00    +0.000 H 
ATOM    109  H17 UNL A   1      46.797  15.551  43.350  1.00  0.00    +0.000 H 
BRANCH   18   17
ATOM     17  N1  UNL A   1      45.887  17.073  44.376  1.00  0.00    +0.000 N 
ATOM    107  H15 UNL A   1      46.258  17.649  43.669  1.00  0.00    +0.000 H 
BRANCH   17   15
ATOM     15  C14 UNL A   1      45.178  17.736  45.330  1.00  0.00    +0.000 C 
ATOM     16  O1  UNL A   1      44.189  18.369  44.941  1.00  0.00    +0.000 O 
BRANCH   15   13
ATOM     13  C12 UNL A   1      45.562  17.751  46.818  1.00  0.00    +0.000 C 
ATOM    103  H11 UNL A   1      45.027  18.574  47.244  1.00  0.00    +0.000 H 
BRANCH   13   12
ATOM    101  H9  UNL A   1      42.430  14.446  47.855  1.00  0.00    +0.000 H 
ATOM    102  H10 UNL A   1      43.298  16.202  46.450  1.00  0.00    +0.000 H 
ATOM    135  H43 UNL A   1      46.660  16.518  48.932  1.00  0.00    +0.000 H 
ATOM    136  H44 UNL A   1      45.869  14.653  50.239  1.00  0.00    +0.000 H 
ATOM      9  C8  UNL A   1      44.054  14.391  49.196  1.00  0.00    +0.000 C 
ATOM     10  C9  UNL A   1      43.341  14.871  48.086  1.00  0.00    +0.000 C 
ATOM     11  C10 UNL A   1      43.832  15.909  47.282  1.00  0.00    +0.000 C 
ATOM     12  C11 UNL A   1      45.032  16.553  47.590  1.00  0.00    +0.000 C 
ATOM     90  C66 UNL A   1      45.761  16.074  48.688  1.00  0.00    +0.000 C 
ATOM     91  C67 UNL A   1      45.291  15.002  49.459  1.00  0.00    +0.000 C 
BRANCH    9    8
ATOM     98  H6  UNL A   1      42.073  10.462  52.242  1.00  0.00    +0.000 H 
ATOM     99  H7  UNL A   1      44.377  10.377  51.494  1.00  0.00    +0.000 H 
ATOM      4  C3  UNL A   1      41.650  12.304  51.304  1.00  0.00    +0.000 C 
ATOM      5  C4  UNL A   1      42.456  11.225  51.661  1.00  0.00    +0.000 C 
ATOM      6  C5  UNL A   1      43.780  11.176  51.232  1.00  0.00    +0.000 C 
ATOM      7  C6  UNL A   1      44.301  12.210  50.447  1.00  0.00    +0.000 C 
ATOM      8  C7  UNL A   1      43.514  13.309  50.058  1.00  0.00    +0.000 C 
ATOM    137  H45 UNL A   1      41.578  14.129  50.258  1.00  0.00    +0.000 H 
ATOM    100  H8  UNL A   1      45.287  12.165  50.147  1.00  0.00    +0.000 H 
ATOM     92  C68 UNL A   1      42.181  13.332  50.513  1.00  0.00    +0.000 C 
BRANCH    4    3
ATOM      3  S1  UNL A   1      39.981  12.416  51.920  1.00  0.00    +0.000 S 
BRANCH    3    2
ATOM     97  H5  UNL A   1      39.396  14.330  53.204  1.00  0.00    +0.000 H 
ATOM      2  C2  UNL A   1      40.200  13.626  53.267  1.00  0.00    +0.000 C 
ATOM     96  H4  UNL A   1      41.151  14.102  53.149  1.00  0.00    +0.000 H 
BRANCH    2    1
ATOM      1  C1  UNL A   1      40.143  12.986  54.642  1.00  0.00    +0.000 C 
ATOM     93  H1  UNL A   1      39.145  12.650  54.839  1.00  0.00    +0.000 H 
ATOM     94  H2  UNL A   1      40.429  13.704  55.383  1.00  0.00    +0.000 H 
ATOM     95  H3  UNL A   1      40.812  12.152  54.677  1.00  0.00    +0.000 H 
ENDBRANCH    2    1
ENDBRANCH    3    2
ENDBRANCH    4    3
ENDBRANCH    9    8
ENDBRANCH   13   12
BRANCH   13   14
ATOM    105  H13 UNL A   1      47.599  17.979  46.211  1.00  0.00    +0.000 H 
ATOM    106  H14 UNL A   1      47.401  17.542  47.890  1.00  0.00    +0.000 H 
ATOM     14  C13 UNL A   1      47.015  18.141  47.093  1.00  0.00    +0.000 C 
ATOM    104  H12 UNL A   1      47.061  19.173  47.367  1.00  0.00    +0.000 H 
ENDBRANCH   13   14
ENDBRANCH   15   13
ENDBRANCH   17   15
ENDBRANCH   18   17
ENDBRANCH   19   18
ENDBRANCH   20   19
ENDBRANCH   21   20
ENDBRANCH   22   21
ENDBRANCH   23   22
ENDBRANCH   24   23
ENDBRANCH   25   24
ENDBRANCH   27   25
ENDBRANCH   31   30
BRANCH   35   36
ATOM     36  C30 UNL A   1      46.423   7.021  51.883  1.00  0.00    +0.000 C 
ATOM     37  C31 UNL A   1      45.234   7.105  52.620  1.00  0.00    +0.000 C 
ATOM     38  F1  UNL A   1      44.716   8.303  52.931  1.00  0.00    +0.000 F 
ATOM     39  C32 UNL A   1      44.588   5.957  53.072  1.00  0.00    +0.000 C 
ATOM     40  F2  UNL A   1      43.475   6.063  53.811  1.00  0.00    +0.000 F 
ATOM     41  C33 UNL A   1      45.100   4.705  52.768  1.00  0.00    +0.000 C 
ATOM     42  F3  UNL A   1      44.474   3.600  53.196  1.00  0.00    +0.000 F 
ATOM     43  C34 UNL A   1      46.266   4.597  52.024  1.00  0.00    +0.000 C 
ATOM     44  F4  UNL A   1      46.756   3.388  51.720  1.00  0.00    +0.000 F 
ATOM     45  C35 UNL A   1      46.929   5.745  51.594  1.00  0.00    +0.000 C 
ATOM     46  F5  UNL A   1      48.060   5.608  50.887  1.00  0.00    +0.000 F 
ENDBRANCH   35   36
BRANCH   52   53
ATOM     53  C41 UNL A   1      52.035  11.171  53.677  1.00  0.00    +0.000 C 
ATOM     54  C42 UNL A   1      51.832  11.776  54.925  1.00  0.00    +0.000 C 
ATOM     55  F6  UNL A   1      50.673  12.395  55.195  1.00  0.00    +0.000 F 
ATOM     56  C43 UNL A   1      52.837  11.780  55.888  1.00  0.00    +0.000 C 
ATOM     57  F7  UNL A   1      52.638  12.403  57.059  1.00  0.00    +0.000 F 
ATOM     58  C44 UNL A   1      54.049  11.154  55.634  1.00  0.00    +0.000 C 
ATOM     59  F8  UNL A   1      55.012  11.155  56.566  1.00  0.00    +0.000 F 
ATOM     60  C45 UNL A   1      54.264  10.535  54.413  1.00  0.00    +0.000 C 
ATOM     61  F9  UNL A   1      55.430   9.920  54.170  1.00  0.00    +0.000 F 
ATOM     62  C46 UNL A   1      53.271  10.551  53.437  1.00  0.00    +0.000 C 
ATOM     63  F10 UNL A   1      53.511   9.954  52.261  1.00  0.00    +0.000 F 
ENDBRANCH   52   53
BRANCH   67   68
ATOM     68  C50 UNL A   1      50.512  15.416  48.371  1.00  0.00    +0.000 C 
ATOM     69  C51 UNL A   1      49.984  16.651  48.773  1.00  0.00    +0.000 C 
ATOM     70  F11 UNL A   1      48.923  16.689  49.592  1.00  0.00    +0.000 F 
ATOM     71  C52 UNL A   1      50.518  17.849  48.304  1.00  0.00    +0.000 C 
ATOM     72  F12 UNL A   1      49.968  19.015  48.672  1.00  0.00    +0.000 F 
ATOM     73  C53 UNL A   1      51.609  17.837  47.447  1.00  0.00    +0.000 C 
ATOM     74  F13 UNL A   1      52.125  18.989  47.001  1.00  0.00    +0.000 F 
ATOM     75  C54 UNL A   1      52.159  16.627  47.049  1.00  0.00    +0.000 C 
ATOM     76  F14 UNL A   1      53.220  16.611  46.232  1.00  0.00    +0.000 F 
ATOM     77  C55 UNL A   1      51.609  15.428  47.498  1.00  0.00    +0.000 C 
ATOM     78  F15 UNL A   1      52.154  14.272  47.089  1.00  0.00    +0.000 F 
ENDBRANCH   67   68
TORSDOF 21
ENDMDL
MODEL 6
REMARK VINA RESULT:      -8.5     28.869     34.132
ROOT
ATOM    129  H37 UNL A   1      13.766  46.861   2.105  1.00  0.00    +0.000 H 
ATOM    130  H38 UNL A   1      15.470  47.014   0.203  1.00  0.00    +0.000 H 
ATOM    131  H39 UNL A   1      16.900  56.766   2.158  1.00  0.00    +0.000 H 
ATOM    132  H40 UNL A   1      15.565  56.525   4.329  1.00  0.00    +0.000 H 
ATOM     31  C26 UNL A   1      14.388  53.951   4.672  1.00  0.00    +0.000 C 
ATOM     32  C27 UNL A   1      15.324  54.397   3.583  1.00  0.00    +0.000 C 
ATOM     33  N3  UNL A   1      15.799  53.717   2.570  1.00  0.00    +0.000 N 
ATOM     34  C28 UNL A   1      16.576  54.611   1.844  1.00  0.00    +0.000 C 
ATOM     35  C29 UNL A   1      17.319  54.377   0.736  1.00  0.00    +0.000 C 
ATOM     47  C36 UNL A   1      17.447  53.093   0.100  1.00  0.00    +0.000 C 
ATOM     48  C37 UNL A   1      18.235  52.740  -0.982  1.00  0.00    +0.000 C 
ATOM     49  C38 UNL A   1      18.002  51.390  -1.272  1.00  0.00    +0.000 C 
ATOM     50  C39 UNL A   1      17.102  50.892  -0.345  1.00  0.00    +0.000 C 
ATOM     51  N4  UNL A   1      16.766  51.948   0.489  1.00  0.00    +0.000 N 
ATOM     52  C40 UNL A   1      16.584  49.555  -0.227  1.00  0.00    +0.000 C 
ATOM     64  C47 UNL A   1      15.709  49.140   0.721  1.00  0.00    +0.000 C 
ATOM     65  N5  UNL A   1      15.136  49.868   1.756  1.00  0.00    +0.000 N 
ATOM     66  C48 UNL A   1      14.351  49.032   2.392  1.00  0.00    +0.000 C 
ATOM     67  C49 UNL A   1      13.501  49.269   3.609  1.00  0.00    +0.000 C 
ATOM     79  C56 UNL A   1      13.521  50.478   4.201  1.00  0.00    +0.000 C 
ATOM     80  C57 UNL A   1      12.760  50.849   5.391  1.00  0.00    +0.000 C 
ATOM     81  C58 UNL A   1      12.989  52.143   5.670  1.00  0.00    +0.000 C 
ATOM     82  C59 UNL A   1      13.938  52.683   4.696  1.00  0.00    +0.000 C 
ATOM     83  N6  UNL A   1      14.207  51.620   3.870  1.00  0.00    +0.000 N 
ATOM     84  C60 UNL A   1      14.321  47.681   1.814  1.00  0.00    +0.000 C 
ATOM     85  C61 UNL A   1      15.193  47.791   0.824  1.00  0.00    +0.000 C 
ATOM     86  C62 UNL A   1      16.474  55.893   2.507  1.00  0.00    +0.000 C 
ATOM     87  C63 UNL A   1      15.761  55.801   3.621  1.00  0.00    +0.000 C 
ATOM    123  H31 UNL A   1      18.883  53.364  -1.488  1.00  0.00    +0.000 H 
ATOM    124  H32 UNL A   1      18.430  50.858  -2.046  1.00  0.00    +0.000 H 
ATOM    125  H33 UNL A   1      16.139  51.893   1.245  1.00  0.00    +0.000 H 
ATOM    126  H34 UNL A   1      12.145  50.220   5.930  1.00  0.00    +0.000 H 
ATOM    127  H35 UNL A   1      12.563  52.671   6.448  1.00  0.00    +0.000 H 
ATOM    128  H36 UNL A   1      14.833  51.672   3.112  1.00  0.00    +0.000 H 
ENDROOT
BRANCH   31   30
ATOM    133  H41 UNL A   1      12.150  55.427   4.604  1.00  0.00    +0.000 H 
ATOM    134  H42 UNL A   1      11.358  57.056   6.215  1.00  0.00    +0.000 H 
ATOM     29  C24 UNL A   1      14.617  55.164   6.864  1.00  0.00    +0.000 C 
ATOM     88  C64 UNL A   1      12.688  55.600   5.467  1.00  0.00    +0.000 C 
ATOM     89  C65 UNL A   1      12.211  56.510   6.411  1.00  0.00    +0.000 C 
ATOM    122  H30 UNL A   1      15.527  54.702   7.014  1.00  0.00    +0.000 H 
ATOM     27  C22 UNL A   1      12.889  56.681   7.621  1.00  0.00    +0.000 C 
ATOM     28  C23 UNL A   1      14.107  56.029   7.835  1.00  0.00    +0.000 C 
ATOM    121  H29 UNL A   1      14.630  56.187   8.712  1.00  0.00    +0.000 H 
ATOM     30  C25 UNL A   1      13.897  54.921   5.684  1.00  0.00    +0.000 C 
BRANCH   27   25
ATOM     25  C21 UNL A   1      12.371  57.587   8.672  1.00  0.00    +0.000 C 
ATOM     26  O2  UNL A   1      12.631  58.783   8.622  1.00  0.00    +0.000 O 
BRANCH   25   24
ATOM    120  H28 UNL A   1      11.987  57.195  10.598  1.00  0.00    +0.000 H 
ATOM     24  N2  UNL A   1      11.600  57.096   9.698  1.00  0.00    +0.000 N 
BRANCH   24   23
ATOM    119  H27 UNL A   1       9.780  56.815   8.787  1.00  0.00    +0.000 H 
ATOM    118  H26 UNL A   1       9.766  56.681  10.548  1.00  0.00    +0.000 H 
ATOM     23  C20 UNL A   1      10.298  56.450   9.650  1.00  0.00    +0.000 C 
BRANCH   23   22
ATOM    116  H24 UNL A   1       9.522  54.496   9.920  1.00  0.00    +0.000 H 
ATOM    117  H25 UNL A   1      10.556  54.730   8.480  1.00  0.00    +0.000 H 
ATOM     22  C19 UNL A   1      10.414  54.932   9.521  1.00  0.00    +0.000 C 
BRANCH   22   21
ATOM    114  H22 UNL A   1      12.385  55.048  10.296  1.00  0.00    +0.000 H 
ATOM    115  H23 UNL A   1      11.245  54.002  11.203  1.00  0.00    +0.000 H 
ATOM     21  C18 UNL A   1      11.612  54.311  10.247  1.00  0.00    +0.000 C 
BRANCH   21   20
ATOM    113  H21 UNL A   1      11.965  53.113   8.559  1.00  0.00    +0.000 H 
ATOM     20  C17 UNL A   1      12.202  53.051   9.600  1.00  0.00    +0.000 C 
ATOM    112  H20 UNL A   1      11.776  52.198  10.087  1.00  0.00    +0.000 H 
BRANCH   20   19
ATOM     19  C16 UNL A   1      13.729  52.926   9.679  1.00  0.00    +0.000 C 
ATOM    110  H18 UNL A   1      14.000  51.931   9.394  1.00  0.00    +0.000 H 
ATOM    111  H19 UNL A   1      14.134  53.667   9.024  1.00  0.00    +0.000 H 
BRANCH   19   18
ATOM     18  C15 UNL A   1      14.304  53.202  11.069  1.00  0.00    +0.000 C 
ATOM    108  H16 UNL A   1      14.622  54.223  11.115  1.00  0.00    +0.000 H 
ATOM    109  H17 UNL A   1      13.539  53.003  11.791  1.00  0.00    +0.000 H 
BRANCH   18   17
ATOM     17  N1  UNL A   1      15.432  52.347  11.368  1.00  0.00    +0.000 N 
ATOM    107  H15 UNL A   1      16.301  52.697  11.066  1.00  0.00    +0.000 H 
BRANCH   17   15
ATOM     15  C14 UNL A   1      15.499  51.141  11.997  1.00  0.00    +0.000 C 
ATOM     16  O1  UNL A   1      15.421  51.159  13.232  1.00  0.00    +0.000 O 
BRANCH   15   13
ATOM     13  C12 UNL A   1      15.684  49.806  11.260  1.00  0.00    +0.000 C 
ATOM    103  H11 UNL A   1      15.783  49.066  12.026  1.00  0.00    +0.000 H 
BRANCH   13   12
ATOM    101  H9  UNL A   1      13.053  49.237   7.444  1.00  0.00    +0.000 H 
ATOM    102  H10 UNL A   1      15.128  49.772   8.549  1.00  0.00    +0.000 H 
ATOM    135  H43 UNL A   1      13.419  48.753  12.238  1.00  0.00    +0.000 H 
ATOM    136  H44 UNL A   1      11.402  48.063  11.112  1.00  0.00    +0.000 H 
ATOM      9  C8  UNL A   1      12.018  48.616   9.172  1.00  0.00    +0.000 C 
ATOM     10  C9  UNL A   1      13.125  49.115   8.467  1.00  0.00    +0.000 C 
ATOM     11  C10 UNL A   1      14.324  49.451   9.110  1.00  0.00    +0.000 C 
ATOM     12  C11 UNL A   1      14.447  49.358  10.498  1.00  0.00    +0.000 C 
ATOM     90  C66 UNL A   1      13.355  48.848  11.212  1.00  0.00    +0.000 C 
ATOM     91  C67 UNL A   1      12.175  48.466  10.560  1.00  0.00    +0.000 C 
BRANCH    9    8
ATOM     98  H6  UNL A   1       7.460  47.409   6.641  1.00  0.00    +0.000 H 
ATOM     99  H7  UNL A   1       8.285  45.974   8.412  1.00  0.00    +0.000 H 
ATOM      4  C3  UNL A   1       9.046  48.793   6.781  1.00  0.00    +0.000 C 
ATOM      5  C4  UNL A   1       8.335  47.647   7.134  1.00  0.00    +0.000 C 
ATOM      6  C5  UNL A   1       8.809  46.824   8.152  1.00  0.00    +0.000 C 
ATOM      7  C6  UNL A   1       9.993  47.147   8.823  1.00  0.00    +0.000 C 
ATOM      8  C7  UNL A   1      10.743  48.289   8.486  1.00  0.00    +0.000 C 
ATOM    137  H45 UNL A   1      10.751  49.958   7.192  1.00  0.00    +0.000 H 
ATOM    100  H8  UNL A   1      10.325  46.533   9.582  1.00  0.00    +0.000 H 
ATOM     92  C68 UNL A   1      10.234  49.105   7.456  1.00  0.00    +0.000 C 
BRANCH    4    3
ATOM      3  S1  UNL A   1       8.403  49.897   5.538  1.00  0.00    +0.000 S 
BRANCH    3    2
ATOM     97  H5  UNL A   1       6.186  49.163   5.086  1.00  0.00    +0.000 H 
ATOM      2  C2  UNL A   1       7.148  48.828   4.756  1.00  0.00    +0.000 C 
ATOM     96  H4  UNL A   1       7.333  47.814   5.045  1.00  0.00    +0.000 H 
BRANCH    2    1
ATOM      1  C1  UNL A   1       7.170  48.915   3.241  1.00  0.00    +0.000 C 
ATOM     93  H1  UNL A   1       7.304  47.936   2.829  1.00  0.00    +0.000 H 
ATOM     94  H2  UNL A   1       7.977  49.545   2.930  1.00  0.00    +0.000 H 
ATOM     95  H3  UNL A   1       6.244  49.324   2.893  1.00  0.00    +0.000 H 
ENDBRANCH    2    1
ENDBRANCH    3    2
ENDBRANCH    4    3
ENDBRANCH    9    8
ENDBRANCH   13   12
BRANCH   13   14
ATOM    105  H13 UNL A   1      16.849  49.765   9.466  1.00  0.00    +0.000 H 
ATOM    106  H14 UNL A   1      17.448  48.717  10.729  1.00  0.00    +0.000 H 
ATOM     14  C13 UNL A   1      17.016  49.673  10.519  1.00  0.00    +0.000 C 
ATOM    104  H12 UNL A   1      17.683  50.444  10.843  1.00  0.00    +0.000 H 
ENDBRANCH   13   14
ENDBRANCH   15   13
ENDBRANCH   17   15
ENDBRANCH   18   17
ENDBRANCH   19   18
ENDBRANCH   20   19
ENDBRANCH   21   20
ENDBRANCH   22   21
ENDBRANCH   23   22
ENDBRANCH   24   23
ENDBRANCH   25   24
ENDBRANCH   27   25
ENDBRANCH   31   30
BRANCH   35   36
ATOM     36  C30 UNL A   1      18.063  55.537   0.140  1.00  0.00    +0.000 C 
ATOM     37  C31 UNL A   1      17.543  56.264  -0.940  1.00  0.00    +0.000 C 
ATOM     38  F1  UNL A   1      16.383  55.899  -1.505  1.00  0.00    +0.000 F 
ATOM     39  C32 UNL A   1      18.233  57.353  -1.469  1.00  0.00    +0.000 C 
ATOM     40  F2  UNL A   1      17.737  58.007  -2.529  1.00  0.00    +0.000 F 
ATOM     41  C33 UNL A   1      19.435  57.754  -0.908  1.00  0.00    +0.000 C 
ATOM     42  F3  UNL A   1      20.095  58.806  -1.412  1.00  0.00    +0.000 F 
ATOM     43  C34 UNL A   1      19.960  57.060   0.173  1.00  0.00    +0.000 C 
ATOM     44  F4  UNL A   1      21.117  57.452   0.723  1.00  0.00    +0.000 F 
ATOM     45  C35 UNL A   1      19.286  55.954   0.686  1.00  0.00    +0.000 C 
ATOM     46  F5  UNL A   1      19.823  55.296   1.724  1.00  0.00    +0.000 F 
ENDBRANCH   35   36
BRANCH   52   53
ATOM     53  C41 UNL A   1      17.058  48.530  -1.215  1.00  0.00    +0.000 C 
ATOM     54  C42 UNL A   1      16.433  48.366  -2.459  1.00  0.00    +0.000 C 
ATOM     55  F6  UNL A   1      15.353  49.096  -2.773  1.00  0.00    +0.000 F 
ATOM     56  C43 UNL A   1      16.896  47.422  -3.372  1.00  0.00    +0.000 C 
ATOM     57  F7  UNL A   1      16.257  47.250  -4.538  1.00  0.00    +0.000 F 
ATOM     58  C44 UNL A   1      18.008  46.648  -3.071  1.00  0.00    +0.000 C 
ATOM     59  F8  UNL A   1      18.453  45.744  -3.954  1.00  0.00    +0.000 F 
ATOM     60  C45 UNL A   1      18.651  46.807  -1.854  1.00  0.00    +0.000 C 
ATOM     61  F9  UNL A   1      19.732  46.068  -1.566  1.00  0.00    +0.000 F 
ATOM     62  C46 UNL A   1      18.176  47.732  -0.927  1.00  0.00    +0.000 C 
ATOM     63  F10 UNL A   1      18.811  47.855   0.246  1.00  0.00    +0.000 F 
ENDBRANCH   52   53
BRANCH   67   68
ATOM     68  C50 UNL A   1      12.666  48.181   4.177  1.00  0.00    +0.000 C 
ATOM     69  C51 UNL A   1      11.418  47.869   3.620  1.00  0.00    +0.000 C 
ATOM     70  F11 UNL A   1      10.957  48.572   2.575  1.00  0.00    +0.000 F 
ATOM     71  C52 UNL A   1      10.622  46.860   4.158  1.00  0.00    +0.000 C 
ATOM     72  F12 UNL A   1       9.414  46.610   3.631  1.00  0.00    +0.000 F 
ATOM     73  C53 UNL A   1      11.070  46.126   5.245  1.00  0.00    +0.000 C 
ATOM     74  F13 UNL A   1      10.306  45.153   5.760  1.00  0.00    +0.000 F 
ATOM     75  C54 UNL A   1      12.309  46.406   5.803  1.00  0.00    +0.000 C 
ATOM     76  F14 UNL A   1      12.751  45.690   6.845  1.00  0.00    +0.000 F 
ATOM     77  C55 UNL A   1      13.094  47.431   5.281  1.00  0.00    +0.000 C 
ATOM     78  F15 UNL A   1      14.284  47.688   5.846  1.00  0.00    +0.000 F 
ENDBRANCH   67   68
TORSDOF 21
ENDMDL
MODEL 7
REMARK VINA RESULT:      -8.5     41.255     46.663
ROOT
ATOM    129  H37 UNL A   1      32.591  39.450  45.726  1.00  0.00    +0.000 H 
ATOM    130  H38 UNL A   1      32.264  37.342  44.313  1.00  0.00    +0.000 H 
ATOM    131  H39 UNL A   1      22.535  37.073  46.813  1.00  0.00    +0.000 H 
ATOM    132  H40 UNL A   1      22.736  39.410  47.840  1.00  0.00    +0.000 H 
ATOM     31  C26 UNL A   1      25.401  40.422  47.874  1.00  0.00    +0.000 C 
ATOM     32  C27 UNL A   1      24.908  39.148  47.244  1.00  0.00    +0.000 C 
ATOM     33  N3  UNL A   1      25.580  38.239  46.583  1.00  0.00    +0.000 N 
ATOM     34  C28 UNL A   1      24.660  37.248  46.263  1.00  0.00    +0.000 C 
ATOM     35  C29 UNL A   1      24.853  36.120  45.539  1.00  0.00    +0.000 C 
ATOM     47  C36 UNL A   1      26.105  35.745  44.937  1.00  0.00    +0.000 C 
ATOM     48  C37 UNL A   1      26.381  34.659  44.124  1.00  0.00    +0.000 C 
ATOM     49  C38 UNL A   1      27.745  34.682  43.811  1.00  0.00    +0.000 C 
ATOM     50  C39 UNL A   1      28.310  35.804  44.394  1.00  0.00    +0.000 C 
ATOM     51  N4  UNL A   1      27.293  36.446  45.086  1.00  0.00    +0.000 N 
ATOM     52  C40 UNL A   1      29.674  36.260  44.329  1.00  0.00    +0.000 C 
ATOM     64  C47 UNL A   1      30.148  37.383  44.921  1.00  0.00    +0.000 C 
ATOM     65  N5  UNL A   1      29.467  38.317  45.689  1.00  0.00    +0.000 N 
ATOM     66  C48 UNL A   1      30.359  39.209  46.045  1.00  0.00    +0.000 C 
ATOM     67  C49 UNL A   1      30.178  40.458  46.862  1.00  0.00    +0.000 C 
ATOM     79  C56 UNL A   1      28.948  40.786  47.301  1.00  0.00    +0.000 C 
ATOM     80  C57 UNL A   1      28.619  41.968  48.092  1.00  0.00    +0.000 C 
ATOM     81  C58 UNL A   1      27.308  41.947  48.386  1.00  0.00    +0.000 C 
ATOM     82  C59 UNL A   1      26.700  40.764  47.777  1.00  0.00    +0.000 C 
ATOM     83  N6  UNL A   1      27.746  40.140  47.144  1.00  0.00    +0.000 N 
ATOM     84  C60 UNL A   1      31.717  38.927  45.559  1.00  0.00    +0.000 C 
ATOM     85  C61 UNL A   1      31.526  37.825  44.849  1.00  0.00    +0.000 C 
ATOM     86  C62 UNL A   1      23.394  37.646  46.838  1.00  0.00    +0.000 C 
ATOM     87  C63 UNL A   1      23.479  38.843  47.403  1.00  0.00    +0.000 C 
ATOM    123  H31 UNL A   1      25.699  33.954  43.803  1.00  0.00    +0.000 H 
ATOM    124  H32 UNL A   1      28.245  33.981  43.242  1.00  0.00    +0.000 H 
ATOM    125  H33 UNL A   1      27.399  37.276  45.603  1.00  0.00    +0.000 H 
ATOM    126  H34 UNL A   1      29.285  42.702  48.378  1.00  0.00    +0.000 H 
ATOM    127  H35 UNL A   1      26.811  42.653  48.952  1.00  0.00    +0.000 H 
ATOM    128  H36 UNL A   1      27.644  39.309  46.626  1.00  0.00    +0.000 H 
ENDROOT
BRANCH   31   30
ATOM    133  H41 UNL A   1      25.006  40.421  50.526  1.00  0.00    +0.000 H 
ATOM    134  H42 UNL A   1      23.466  41.762  51.831  1.00  0.00    +0.000 H 
ATOM     29  C24 UNL A   1      23.670  42.240  48.043  1.00  0.00    +0.000 C 
ATOM     88  C64 UNL A   1      24.415  41.126  50.059  1.00  0.00    +0.000 C 
ATOM     89  C65 UNL A   1      23.557  41.923  50.816  1.00  0.00    +0.000 C 
ATOM    122  H30 UNL A   1      23.677  42.330  47.015  1.00  0.00    +0.000 H 
ATOM     27  C22 UNL A   1      22.822  42.939  50.200  1.00  0.00    +0.000 C 
ATOM     28  C23 UNL A   1      22.856  43.079  48.809  1.00  0.00    +0.000 C 
ATOM    121  H29 UNL A   1      22.282  43.803  48.348  1.00  0.00    +0.000 H 
ATOM     30  C25 UNL A   1      24.478  41.275  48.665  1.00  0.00    +0.000 C 
BRANCH   27   25
ATOM     25  C21 UNL A   1      21.954  43.846  50.986  1.00  0.00    +0.000 C 
ATOM     26  O2  UNL A   1      21.900  45.035  50.696  1.00  0.00    +0.000 O 
BRANCH   25   24
ATOM    120  H28 UNL A   1      21.671  43.344  52.904  1.00  0.00    +0.000 H 
ATOM     24  N2  UNL A   1      21.209  43.363  52.034  1.00  0.00    +0.000 N 
BRANCH   24   23
ATOM    119  H27 UNL A   1      19.447  42.963  51.057  1.00  0.00    +0.000 H 
ATOM    118  H26 UNL A   1      19.273  43.460  52.743  1.00  0.00    +0.000 H 
ATOM     23  C20 UNL A   1      19.839  42.875  52.049  1.00  0.00    +0.000 C 
BRANCH   23   22
ATOM    116  H24 UNL A   1      20.297  41.287  53.376  1.00  0.00    +0.000 H 
ATOM    117  H25 UNL A   1      18.715  41.178  52.548  1.00  0.00    +0.000 H 
ATOM     22  C19 UNL A   1      19.757  41.406  52.460  1.00  0.00    +0.000 C 
BRANCH   22   21
ATOM    114  H22 UNL A   1      21.380  40.598  51.357  1.00  0.00    +0.000 H 
ATOM    115  H23 UNL A   1      20.084  39.442  51.810  1.00  0.00    +0.000 H 
ATOM     21  C18 UNL A   1      20.329  40.415  51.439  1.00  0.00    +0.000 C 
BRANCH   21   20
ATOM    113  H21 UNL A   1      19.638  41.530  49.799  1.00  0.00    +0.000 H 
ATOM     20  C17 UNL A   1      19.726  40.489  50.030  1.00  0.00    +0.000 C 
ATOM    112  H20 UNL A   1      18.790  39.971  50.044  1.00  0.00    +0.000 H 
BRANCH   20   19
ATOM     19  C16 UNL A   1      20.586  39.880  48.916  1.00  0.00    +0.000 C 
ATOM    110  H18 UNL A   1      20.869  40.663  48.244  1.00  0.00    +0.000 H 
ATOM    111  H19 UNL A   1      21.428  39.421  49.390  1.00  0.00    +0.000 H 
BRANCH   19   18
ATOM     18  C15 UNL A   1      19.880  38.788  48.112  1.00  0.00    +0.000 C 
ATOM    108  H16 UNL A   1      19.099  39.235  47.532  1.00  0.00    +0.000 H 
ATOM    109  H17 UNL A   1      20.605  38.316  47.483  1.00  0.00    +0.000 H 
BRANCH   18   17
ATOM     17  N1  UNL A   1      19.303  37.773  48.968  1.00  0.00    +0.000 N 
ATOM    107  H15 UNL A   1      18.439  38.020  49.368  1.00  0.00    +0.000 H 
BRANCH   17   15
ATOM     15  C14 UNL A   1      19.751  36.534  49.313  1.00  0.00    +0.000 C 
ATOM     16  O1  UNL A   1      19.496  35.617  48.523  1.00  0.00    +0.000 O 
BRANCH   15   13
ATOM     13  C12 UNL A   1      20.514  36.237  50.613  1.00  0.00    +0.000 C 
ATOM    103  H11 UNL A   1      20.399  35.186  50.779  1.00  0.00    +0.000 H 
BRANCH   13   12
ATOM    101  H9  UNL A   1      24.552  38.542  51.042  1.00  0.00    +0.000 H 
ATOM    102  H10 UNL A   1      22.198  38.256  51.476  1.00  0.00    +0.000 H 
ATOM    135  H43 UNL A   1      22.288  34.563  49.497  1.00  0.00    +0.000 H 
ATOM    136  H44 UNL A   1      24.672  34.776  49.209  1.00  0.00    +0.000 H 
ATOM      9  C8  UNL A   1      24.839  36.697  50.066  1.00  0.00    +0.000 C 
ATOM     10  C9  UNL A   1      24.082  37.681  50.721  1.00  0.00    +0.000 C 
ATOM     11  C10 UNL A   1      22.708  37.529  50.952  1.00  0.00    +0.000 C 
ATOM     12  C11 UNL A   1      22.019  36.408  50.484  1.00  0.00    +0.000 C 
ATOM     90  C66 UNL A   1      22.765  35.411  49.841  1.00  0.00    +0.000 C 
ATOM     91  C67 UNL A   1      24.148  35.544  49.656  1.00  0.00    +0.000 C 
BRANCH    9    8
ATOM     98  H6  UNL A   1      30.047  37.376  49.040  1.00  0.00    +0.000 H 
ATOM     99  H7  UNL A   1      28.818  39.067  50.266  1.00  0.00    +0.000 H 
ATOM      4  C3  UNL A   1      28.394  36.085  48.813  1.00  0.00    +0.000 C 
ATOM      5  C4  UNL A   1      29.044  37.240  49.244  1.00  0.00    +0.000 C 
ATOM      6  C5  UNL A   1      28.338  38.211  49.949  1.00  0.00    +0.000 C 
ATOM      7  C6  UNL A   1      26.980  38.027  50.229  1.00  0.00    +0.000 C 
ATOM      8  C7  UNL A   1      26.288  36.879  49.801  1.00  0.00    +0.000 C 
ATOM    137  H45 UNL A   1      26.560  35.052  48.777  1.00  0.00    +0.000 H 
ATOM    100  H8  UNL A   1      26.474  38.750  50.762  1.00  0.00    +0.000 H 
ATOM     92  C68 UNL A   1      27.031  35.913  49.095  1.00  0.00    +0.000 C 
BRANCH    4    3
ATOM      3  S1  UNL A   1      29.309  34.799  47.985  1.00  0.00    +0.000 S 
BRANCH    3    2
ATOM     97  H5  UNL A   1      28.054  33.523  46.419  1.00  0.00    +0.000 H 
ATOM      2  C2  UNL A   1      27.949  33.697  47.471  1.00  0.00    +0.000 C 
ATOM     96  H4  UNL A   1      27.018  34.171  47.701  1.00  0.00    +0.000 H 
BRANCH    2    1
ATOM      1  C1  UNL A   1      27.995  32.348  48.166  1.00  0.00    +0.000 C 
ATOM     93  H1  UNL A   1      28.910  32.261  48.715  1.00  0.00    +0.000 H 
ATOM     94  H2  UNL A   1      27.942  31.568  47.436  1.00  0.00    +0.000 H 
ATOM     95  H3  UNL A   1      27.167  32.265  48.839  1.00  0.00    +0.000 H 
ENDBRANCH    2    1
ENDBRANCH    3    2
ENDBRANCH    4    3
ENDBRANCH    9    8
ENDBRANCH   13   12
BRANCH   13   14
ATOM    105  H13 UNL A   1      20.592  37.433  52.384  1.00  0.00    +0.000 H 
ATOM    106  H14 UNL A   1      19.550  36.037  52.512  1.00  0.00    +0.000 H 
ATOM     14  C13 UNL A   1      19.874  36.829  51.870  1.00  0.00    +0.000 C 
ATOM    104  H12 UNL A   1      19.034  37.430  51.593  1.00  0.00    +0.000 H 
ENDBRANCH   13   14
ENDBRANCH   15   13
ENDBRANCH   17   15
ENDBRANCH   18   17
ENDBRANCH   19   18
ENDBRANCH   20   19
ENDBRANCH   21   20
ENDBRANCH   22   21
ENDBRANCH   23   22
ENDBRANCH   24   23
ENDBRANCH   25   24
ENDBRANCH   27   25
ENDBRANCH   31   30
BRANCH   35   36
ATOM     36  C30 UNL A   1      23.677  35.206  45.349  1.00  0.00    +0.000 C 
ATOM     37  C31 UNL A   1      22.614  35.544  44.500  1.00  0.00    +0.000 C 
ATOM     38  F1  UNL A   1      22.599  36.732  43.876  1.00  0.00    +0.000 F 
ATOM     39  C32 UNL A   1      21.540  34.677  44.316  1.00  0.00    +0.000 C 
ATOM     40  F2  UNL A   1      20.514  35.039  43.532  1.00  0.00    +0.000 F 
ATOM     41  C33 UNL A   1      21.526  33.443  44.948  1.00  0.00    +0.000 C 
ATOM     42  F3  UNL A   1      20.497  32.604  44.764  1.00  0.00    +0.000 F 
ATOM     43  C34 UNL A   1      22.576  33.079  45.778  1.00  0.00    +0.000 C 
ATOM     44  F4  UNL A   1      22.569  31.883  46.382  1.00  0.00    +0.000 F 
ATOM     45  C35 UNL A   1      23.638  33.957  45.987  1.00  0.00    +0.000 C 
ATOM     46  F5  UNL A   1      24.633  33.582  46.804  1.00  0.00    +0.000 F 
ENDBRANCH   35   36
BRANCH   52   53
ATOM     53  C41 UNL A   1      30.646  35.444  43.530  1.00  0.00    +0.000 C 
ATOM     54  C42 UNL A   1      31.004  35.803  42.223  1.00  0.00    +0.000 C 
ATOM     55  F6  UNL A   1      30.436  36.867  41.635  1.00  0.00    +0.000 F 
ATOM     56  C43 UNL A   1      31.921  35.045  41.499  1.00  0.00    +0.000 C 
ATOM     57  F7  UNL A   1      32.215  35.380  40.235  1.00  0.00    +0.000 F 
ATOM     58  C44 UNL A   1      32.519  33.935  42.078  1.00  0.00    +0.000 C 
ATOM     59  F8  UNL A   1      33.404  33.211  41.381  1.00  0.00    +0.000 F 
ATOM     60  C45 UNL A   1      32.192  33.573  43.375  1.00  0.00    +0.000 C 
ATOM     61  F9  UNL A   1      32.777  32.507  43.941  1.00  0.00    +0.000 F 
ATOM     62  C46 UNL A   1      31.256  34.313  44.093  1.00  0.00    +0.000 C 
ATOM     63  F10 UNL A   1      30.952  33.933  45.342  1.00  0.00    +0.000 F 
ENDBRANCH   52   53
BRANCH   67   68
ATOM     68  C50 UNL A   1      31.331  41.343  47.167  1.00  0.00    +0.000 C 
ATOM     69  C51 UNL A   1      31.466  42.588  46.536  1.00  0.00    +0.000 C 
ATOM     70  F11 UNL A   1      30.560  42.981  45.630  1.00  0.00    +0.000 F 
ATOM     71  C52 UNL A   1      32.554  43.415  46.806  1.00  0.00    +0.000 C 
ATOM     72  F12 UNL A   1      32.682  44.582  46.159  1.00  0.00    +0.000 F 
ATOM     73  C53 UNL A   1      33.512  43.027  47.731  1.00  0.00    +0.000 C 
ATOM     74  F13 UNL A   1      34.555  43.825  47.994  1.00  0.00    +0.000 F 
ATOM     75  C54 UNL A   1      33.389  41.807  48.379  1.00  0.00    +0.000 C 
ATOM     76  F14 UNL A   1      34.304  41.434  49.283  1.00  0.00    +0.000 F 
ATOM     77  C55 UNL A   1      32.315  40.967  48.092  1.00  0.00    +0.000 C 
ATOM     78  F15 UNL A   1      32.226  39.788  48.725  1.00  0.00    +0.000 F 
ENDBRANCH   67   68
TORSDOF 21
ENDMDL
MODEL 8
REMARK VINA RESULT:      -8.5     41.038     46.931
ROOT
ATOM    129  H37 UNL A   1      19.035  36.190  48.877  1.00  0.00    +0.000 H 
ATOM    130  H38 UNL A   1      19.458  34.433  47.067  1.00  0.00    +0.000 H 
ATOM    131  H39 UNL A   1      29.244  36.714  47.025  1.00  0.00    +0.000 H 
ATOM    132  H40 UNL A   1      28.922  38.130  49.134  1.00  0.00    +0.000 H 
ATOM     31  C26 UNL A   1      26.200  38.373  49.947  1.00  0.00    +0.000 C 
ATOM     32  C27 UNL A   1      26.756  37.528  48.834  1.00  0.00    +0.000 C 
ATOM     33  N3  UNL A   1      26.127  36.730  48.007  1.00  0.00    +0.000 N 
ATOM     34  C28 UNL A   1      27.099  36.232  47.149  1.00  0.00    +0.000 C 
ATOM     35  C29 UNL A   1      26.960  35.328  46.150  1.00  0.00    +0.000 C 
ATOM     47  C36 UNL A   1      25.719  34.689  45.800  1.00  0.00    +0.000 C 
ATOM     48  C37 UNL A   1      25.492  33.706  44.853  1.00  0.00    +0.000 C 
ATOM     49  C38 UNL A   1      24.122  33.420  44.838  1.00  0.00    +0.000 C 
ATOM     50  C39 UNL A   1      23.502  34.195  45.804  1.00  0.00    +0.000 C 
ATOM     51  N4  UNL A   1      24.493  34.971  46.385  1.00  0.00    +0.000 N 
ATOM     52  C40 UNL A   1      22.111  34.227  46.172  1.00  0.00    +0.000 C 
ATOM     64  C47 UNL A   1      21.581  35.009  47.144  1.00  0.00    +0.000 C 
ATOM     65  N5  UNL A   1      22.222  35.917  47.978  1.00  0.00    +0.000 N 
ATOM     66  C48 UNL A   1      21.284  36.432  48.735  1.00  0.00    +0.000 C 
ATOM     67  C49 UNL A   1      21.406  37.449  49.836  1.00  0.00    +0.000 C 
ATOM     79  C56 UNL A   1      22.624  37.920  50.166  1.00  0.00    +0.000 C 
ATOM     80  C57 UNL A   1      22.897  38.898  51.215  1.00  0.00    +0.000 C 
ATOM     81  C58 UNL A   1      24.213  39.165  51.231  1.00  0.00    +0.000 C 
ATOM     82  C59 UNL A   1      24.880  38.355  50.212  1.00  0.00    +0.000 C 
ATOM     83  N6  UNL A   1      23.860  37.638  49.637  1.00  0.00    +0.000 N 
ATOM     84  C60 UNL A   1      19.935  35.924  48.449  1.00  0.00    +0.000 C 
ATOM     85  C61 UNL A   1      20.178  35.033  47.499  1.00  0.00    +0.000 C 
ATOM     86  C62 UNL A   1      28.352  36.849  47.527  1.00  0.00    +0.000 C 
ATOM     87  C63 UNL A   1      28.205  37.612  48.601  1.00  0.00    +0.000 C 
ATOM    123  H31 UNL A   1      26.209  33.259  44.260  1.00  0.00    +0.000 H 
ATOM    124  H32 UNL A   1      23.653  32.746  44.212  1.00  0.00    +0.000 H 
ATOM    125  H33 UNL A   1      24.348  35.625  47.107  1.00  0.00    +0.000 H 
ATOM    126  H34 UNL A   1      22.193  39.314  51.843  1.00  0.00    +0.000 H 
ATOM    127  H35 UNL A   1      24.679  39.837  51.862  1.00  0.00    +0.000 H 
ATOM    128  H36 UNL A   1      24.002  36.984  48.915  1.00  0.00    +0.000 H 
ENDROOT
BRANCH   31   30
ATOM    133  H41 UNL A   1      26.795  40.934  49.420  1.00  0.00    +0.000 H 
ATOM    134  H42 UNL A   1      28.282  42.424  50.620  1.00  0.00    +0.000 H 
ATOM     29  C24 UNL A   1      27.740  38.853  51.877  1.00  0.00    +0.000 C 
ATOM     88  C64 UNL A   1      27.271  40.606  50.274  1.00  0.00    +0.000 C 
ATOM     89  C65 UNL A   1      28.097  41.476  50.985  1.00  0.00    +0.000 C 
ATOM    122  H30 UNL A   1      27.645  37.874  52.185  1.00  0.00    +0.000 H 
ATOM     27  C22 UNL A   1      28.673  41.065  52.189  1.00  0.00    +0.000 C 
ATOM     28  C23 UNL A   1      28.517  39.744  52.621  1.00  0.00    +0.000 C 
ATOM    121  H29 UNL A   1      28.976  39.427  53.490  1.00  0.00    +0.000 H 
ATOM     30  C25 UNL A   1      27.087  39.286  50.712  1.00  0.00    +0.000 C 
BRANCH   27   25
ATOM     25  C21 UNL A   1      29.498  41.988  53.003  1.00  0.00    +0.000 C 
ATOM     26  O2  UNL A   1      28.995  43.003  53.466  1.00  0.00    +0.000 O 
BRANCH   25   24
ATOM    120  H28 UNL A   1      31.020  41.345  54.134  1.00  0.00    +0.000 H 
ATOM     24  N2  UNL A   1      30.823  41.711  53.242  1.00  0.00    +0.000 N 
BRANCH   24   23
ATOM    119  H27 UNL A   1      32.326  40.906  52.095  1.00  0.00    +0.000 H 
ATOM    118  H26 UNL A   1      32.729  42.426  52.898  1.00  0.00    +0.000 H 
ATOM     23  C20 UNL A   1      31.976  41.879  52.371  1.00  0.00    +0.000 C 
BRANCH   23   22
ATOM    116  H24 UNL A   1      30.644  43.049  51.209  1.00  0.00    +0.000 H 
ATOM    117  H25 UNL A   1      32.386  43.373  50.960  1.00  0.00    +0.000 H 
ATOM     22  C19 UNL A   1      31.623  42.633  51.090  1.00  0.00    +0.000 C 
BRANCH   22   21
ATOM    114  H22 UNL A   1      30.779  42.065  49.229  1.00  0.00    +0.000 H 
ATOM    115  H23 UNL A   1      32.567  41.973  49.342  1.00  0.00    +0.000 H 
ATOM     21  C18 UNL A   1      31.628  41.782  49.815  1.00  0.00    +0.000 C 
BRANCH   21   20
ATOM    113  H21 UNL A   1      30.839  40.100  50.794  1.00  0.00    +0.000 H 
ATOM     20  C17 UNL A   1      31.569  40.264  50.028  1.00  0.00    +0.000 C 
ATOM    112  H20 UNL A   1      32.550  39.928  50.291  1.00  0.00    +0.000 H 
BRANCH   20   19
ATOM     19  C16 UNL A   1      31.099  39.449  48.816  1.00  0.00    +0.000 C 
ATOM    110  H18 UNL A   1      30.332  38.777  49.139  1.00  0.00    +0.000 H 
ATOM    111  H19 UNL A   1      30.752  40.151  48.087  1.00  0.00    +0.000 H 
BRANCH   19   18
ATOM     18  C15 UNL A   1      32.207  38.631  48.151  1.00  0.00    +0.000 C 
ATOM    108  H16 UNL A   1      32.878  38.278  48.907  1.00  0.00    +0.000 H 
ATOM    109  H17 UNL A   1      31.750  37.816  47.629  1.00  0.00    +0.000 H 
BRANCH   18   17
ATOM     17  N1  UNL A   1      32.956  39.413  47.191  1.00  0.00    +0.000 N 
ATOM    107  H15 UNL A   1      33.816  39.756  47.525  1.00  0.00    +0.000 H 
BRANCH   17   15
ATOM     15  C14 UNL A   1      32.675  39.756  45.903  1.00  0.00    +0.000 C 
ATOM     16  O1  UNL A   1      33.070  38.976  45.028  1.00  0.00    +0.000 O 
BRANCH   15   13
ATOM     13  C12 UNL A   1      31.934  41.041  45.507  1.00  0.00    +0.000 C 
ATOM    103  H11 UNL A   1      31.983  41.084  44.439  1.00  0.00    +0.000 H 
BRANCH   13   12
ATOM    101  H9  UNL A   1      27.955  42.485  47.480  1.00  0.00    +0.000 H 
ATOM    102  H10 UNL A   1      30.282  42.759  46.913  1.00  0.00    +0.000 H 
ATOM    135  H43 UNL A   1      30.150  39.216  44.679  1.00  0.00    +0.000 H 
ATOM    136  H44 UNL A   1      27.786  39.032  45.112  1.00  0.00    +0.000 H 
ATOM      9  C8  UNL A   1      27.647  40.721  46.368  1.00  0.00    +0.000 C 
ATOM     10  C9  UNL A   1      28.410  41.788  46.868  1.00  0.00    +0.000 C 
ATOM     11  C10 UNL A   1      29.769  41.937  46.561  1.00  0.00    +0.000 C 
ATOM     12  C11 UNL A   1      30.440  40.988  45.786  1.00  0.00    +0.000 C 
ATOM     90  C66 UNL A   1      29.687  39.926  45.268  1.00  0.00    +0.000 C 
ATOM     91  C67 UNL A   1      28.317  39.808  45.536  1.00  0.00    +0.000 C 
BRANCH    9    8
ATOM     98  H6  UNL A   1      22.466  40.184  47.592  1.00  0.00    +0.000 H 
ATOM     99  H7  UNL A   1      23.513  38.650  46.035  1.00  0.00    +0.000 H 
ATOM      4  C3  UNL A   1      24.219  41.302  47.947  1.00  0.00    +0.000 C 
ATOM      5  C4  UNL A   1      23.467  40.284  47.363  1.00  0.00    +0.000 C 
ATOM      6  C5  UNL A   1      24.069  39.402  46.469  1.00  0.00    +0.000 C 
ATOM      7  C6  UNL A   1      25.427  39.534  46.160  1.00  0.00    +0.000 C 
ATOM      8  C7  UNL A   1      26.215  40.557  46.721  1.00  0.00    +0.000 C 
ATOM    137  H45 UNL A   1      26.128  42.182  48.066  1.00  0.00    +0.000 H 
ATOM    100  H8  UNL A   1      25.861  38.867  45.505  1.00  0.00    +0.000 H 
ATOM     92  C68 UNL A   1      25.578  41.428  47.626  1.00  0.00    +0.000 C 
BRANCH    4    3
ATOM      3  S1  UNL A   1      23.478  42.381  49.156  1.00  0.00    +0.000 S 
BRANCH    3    2
ATOM     97  H5  UNL A   1      21.946  44.140  48.691  1.00  0.00    +0.000 H 
ATOM      2  C2  UNL A   1      22.565  43.527  48.069  1.00  0.00    +0.000 C 
ATOM     96  H4  UNL A   1      21.983  42.954  47.377  1.00  0.00    +0.000 H 
BRANCH    2    1
ATOM      1  C1  UNL A   1      23.484  44.447  47.286  1.00  0.00    +0.000 C 
ATOM     93  H1  UNL A   1      24.386  43.925  47.040  1.00  0.00    +0.000 H 
ATOM     94  H2  UNL A   1      23.721  45.305  47.880  1.00  0.00    +0.000 H 
ATOM     95  H3  UNL A   1      22.997  44.760  46.387  1.00  0.00    +0.000 H 
ENDBRANCH    2    1
ENDBRANCH    3    2
ENDBRANCH    4    3
ENDBRANCH    9    8
ENDBRANCH   13   12
BRANCH   13   14
ATOM    105  H13 UNL A   1      33.698  42.229  45.728  1.00  0.00    +0.000 H 
ATOM    106  H14 UNL A   1      32.483  42.524  46.948  1.00  0.00    +0.000 H 
ATOM     14  C13 UNL A   1      32.649  42.333  45.909  1.00  0.00    +0.000 C 
ATOM    104  H12 UNL A   1      32.265  43.147  45.331  1.00  0.00    +0.000 H 
ENDBRANCH   13   14
ENDBRANCH   15   13
ENDBRANCH   17   15
ENDBRANCH   18   17
ENDBRANCH   19   18
ENDBRANCH   20   19
ENDBRANCH   21   20
ENDBRANCH   22   21
ENDBRANCH   23   22
ENDBRANCH   24   23
ENDBRANCH   25   24
ENDBRANCH   27   25
ENDBRANCH   31   30
BRANCH   35   36
ATOM     36  C30 UNL A   1      28.186  34.968  45.362  1.00  0.00    +0.000 C 
ATOM     37  C31 UNL A   1      28.628  35.758  44.291  1.00  0.00    +0.000 C 
ATOM     38  F1  UNL A   1      27.924  36.833  43.909  1.00  0.00    +0.000 F 
ATOM     39  C32 UNL A   1      29.780  35.425  43.582  1.00  0.00    +0.000 C 
ATOM     40  F2  UNL A   1      30.160  36.170  42.535  1.00  0.00    +0.000 F 
ATOM     41  C33 UNL A   1      30.528  34.318  43.952  1.00  0.00    +0.000 C 
ATOM     42  F3  UNL A   1      31.641  34.002  43.276  1.00  0.00    +0.000 F 
ATOM     43  C34 UNL A   1      30.120  33.532  45.020  1.00  0.00    +0.000 C 
ATOM     44  F4  UNL A   1      30.848  32.468  45.386  1.00  0.00    +0.000 F 
ATOM     45  C35 UNL A   1      28.953  33.847  45.713  1.00  0.00    +0.000 C 
ATOM     46  F5  UNL A   1      28.578  33.063  46.734  1.00  0.00    +0.000 F 
ENDBRANCH   35   36
BRANCH   52   53
ATOM     53  C41 UNL A   1      21.172  33.314  45.442  1.00  0.00    +0.000 C 
ATOM     54  C42 UNL A   1      21.057  31.958  45.779  1.00  0.00    +0.000 C 
ATOM     55  F6  UNL A   1      21.832  31.434  46.741  1.00  0.00    +0.000 F 
ATOM     56  C43 UNL A   1      20.169  31.126  45.103  1.00  0.00    +0.000 C 
ATOM     57  F7  UNL A   1      20.106  29.823  45.411  1.00  0.00    +0.000 F 
ATOM     58  C44 UNL A   1      19.360  31.639  44.099  1.00  0.00    +0.000 C 
ATOM     59  F8  UNL A   1      18.503  30.838  43.454  1.00  0.00    +0.000 F 
ATOM     60  C45 UNL A   1      19.445  32.981  43.762  1.00  0.00    +0.000 C 
ATOM     61  F9  UNL A   1      18.657  33.481  42.800  1.00  0.00    +0.000 F 
ATOM     62  C46 UNL A   1      20.351  33.811  44.418  1.00  0.00    +0.000 C 
ATOM     63  F10 UNL A   1      20.420  35.101  44.063  1.00  0.00    +0.000 F 
ENDBRANCH   52   53
BRANCH   67   68
ATOM     68  C50 UNL A   1      20.208  37.917  50.577  1.00  0.00    +0.000 C 
ATOM     69  C51 UNL A   1      19.798  37.277  51.755  1.00  0.00    +0.000 C 
ATOM     70  F11 UNL A   1      20.479  36.217  52.212  1.00  0.00    +0.000 F 
ATOM     71  C52 UNL A   1      18.665  37.702  52.446  1.00  0.00    +0.000 C 
ATOM     72  F12 UNL A   1      18.272  37.047  53.549  1.00  0.00    +0.000 F 
ATOM     73  C53 UNL A   1      17.937  38.790  51.990  1.00  0.00    +0.000 C 
ATOM     74  F13 UNL A   1      16.851  39.200  52.657  1.00  0.00    +0.000 F 
ATOM     75  C54 UNL A   1      18.334  39.448  50.834  1.00  0.00    +0.000 C 
ATOM     76  F14 UNL A   1      17.641  40.507  50.396  1.00  0.00    +0.000 F 
ATOM     77  C55 UNL A   1      19.452  39.009  50.129  1.00  0.00    +0.000 C 
ATOM     78  F15 UNL A   1      19.808  39.657  49.009  1.00  0.00    +0.000 F 
ENDBRANCH   67   68
TORSDOF 21
ENDMDL
MODEL 9
REMARK VINA RESULT:      -8.5     42.523     47.914
ROOT
ATOM    129  H37 UNL A   1      22.763  45.287  49.930  1.00  0.00    +0.000 H 
ATOM    130  H38 UNL A   1      20.638  43.968  50.467  1.00  0.00    +0.000 H 
ATOM    131  H39 UNL A   1      24.185  36.040  45.414  1.00  0.00    +0.000 H 
ATOM    132  H40 UNL A   1      26.480  37.164  45.263  1.00  0.00    +0.000 H 
ATOM     31  C26 UNL A   1      26.523  39.825  46.287  1.00  0.00    +0.000 C 
ATOM     32  C27 UNL A   1      25.385  38.842  46.326  1.00  0.00    +0.000 C 
ATOM     33  N3  UNL A   1      24.185  38.985  46.830  1.00  0.00    +0.000 N 
ATOM     34  C28 UNL A   1      23.516  37.798  46.557  1.00  0.00    +0.000 C 
ATOM     35  C29 UNL A   1      22.262  37.435  46.918  1.00  0.00    +0.000 C 
ATOM     47  C36 UNL A   1      21.370  38.254  47.695  1.00  0.00    +0.000 C 
ATOM     48  C37 UNL A   1      20.108  37.944  48.172  1.00  0.00    +0.000 C 
ATOM     49  C38 UNL A   1      19.605  39.065  48.842  1.00  0.00    +0.000 C 
ATOM     50  C39 UNL A   1      20.570  40.059  48.818  1.00  0.00    +0.000 C 
ATOM     51  N4  UNL A   1      21.646  39.549  48.108  1.00  0.00    +0.000 N 
ATOM     52  C40 UNL A   1      20.517  41.375  49.398  1.00  0.00    +0.000 C 
ATOM     64  C47 UNL A   1      21.514  42.291  49.341  1.00  0.00    +0.000 C 
ATOM     65  N5  UNL A   1      22.763  42.183  48.744  1.00  0.00    +0.000 N 
ATOM     66  C48 UNL A   1      23.358  43.334  48.947  1.00  0.00    +0.000 C 
ATOM     67  C49 UNL A   1      24.739  43.771  48.543  1.00  0.00    +0.000 C 
ATOM     79  C56 UNL A   1      25.545  42.902  47.905  1.00  0.00    +0.000 C 
ATOM     80  C57 UNL A   1      26.908  43.180  47.463  1.00  0.00    +0.000 C 
ATOM     81  C58 UNL A   1      27.391  42.101  46.826  1.00  0.00    +0.000 C 
ATOM     82  C59 UNL A   1      26.380  41.043  46.841  1.00  0.00    +0.000 C 
ATOM     83  N6  UNL A   1      25.322  41.604  47.513  1.00  0.00    +0.000 N 
ATOM     84  C60 UNL A   1      22.540  44.312  49.677  1.00  0.00    +0.000 C 
ATOM     85  C61 UNL A   1      21.442  43.614  49.926  1.00  0.00    +0.000 C 
ATOM     86  C62 UNL A   1      24.428  36.963  45.807  1.00  0.00    +0.000 C 
ATOM     87  C63 UNL A   1      25.617  37.537  45.690  1.00  0.00    +0.000 C 
ATOM    123  H31 UNL A   1      19.622  37.041  48.056  1.00  0.00    +0.000 H 
ATOM    124  H32 UNL A   1      18.674  39.138  49.280  1.00  0.00    +0.000 H 
ATOM    125  H33 UNL A   1      22.483  40.035  47.925  1.00  0.00    +0.000 H 
ATOM    126  H34 UNL A   1      27.419  44.063  47.616  1.00  0.00    +0.000 H 
ATOM    127  H35 UNL A   1      28.326  42.029  46.393  1.00  0.00    +0.000 H 
ATOM    128  H36 UNL A   1      24.484  41.122  47.696  1.00  0.00    +0.000 H 
ENDROOT
BRANCH   31   30
ATOM    133  H41 UNL A   1      27.682  41.134  44.255  1.00  0.00    +0.000 H 
ATOM    134  H42 UNL A   1      29.706  40.571  43.045  1.00  0.00    +0.000 H 
ATOM     29  C24 UNL A   1      28.543  38.365  45.944  1.00  0.00    +0.000 C 
ATOM     88  C64 UNL A   1      28.232  40.306  44.530  1.00  0.00    +0.000 C 
ATOM     89  C65 UNL A   1      29.416  40.004  43.858  1.00  0.00    +0.000 C 
ATOM    122  H30 UNL A   1      28.201  37.733  46.684  1.00  0.00    +0.000 H 
ATOM     27  C22 UNL A   1      30.210  38.937  44.285  1.00  0.00    +0.000 C 
ATOM     28  C23 UNL A   1      29.759  38.100  45.310  1.00  0.00    +0.000 C 
ATOM    121  H29 UNL A   1      30.326  37.286  45.600  1.00  0.00    +0.000 H 
ATOM     30  C25 UNL A   1      27.783  39.487  45.578  1.00  0.00    +0.000 C 
BRANCH   27   25
ATOM     25  C21 UNL A   1      31.507  38.634  43.636  1.00  0.00    +0.000 C 
ATOM     26  O2  UNL A   1      31.652  37.576  43.037  1.00  0.00    +0.000 O 
BRANCH   25   24
ATOM    120  H28 UNL A   1      32.737  40.011  42.862  1.00  0.00    +0.000 H 
ATOM     24  N2  UNL A   1      32.545  39.533  43.700  1.00  0.00    +0.000 N 
BRANCH   24   23
ATOM    119  H27 UNL A   1      34.410  39.922  44.468  1.00  0.00    +0.000 H 
ATOM    118  H26 UNL A   1      33.289  39.136  45.584  1.00  0.00    +0.000 H 
ATOM     23  C20 UNL A   1      33.401  39.879  44.824  1.00  0.00    +0.000 C 
BRANCH   23   22
ATOM    116  H24 UNL A   1      33.917  41.621  45.917  1.00  0.00    +0.000 H 
ATOM    117  H25 UNL A   1      32.743  41.855  44.589  1.00  0.00    +0.000 H 
ATOM     22  C19 UNL A   1      33.052  41.245  45.412  1.00  0.00    +0.000 C 
BRANCH   22   21
ATOM    114  H22 UNL A   1      31.200  40.478  46.107  1.00  0.00    +0.000 H 
ATOM    115  H23 UNL A   1      32.324  41.081  47.369  1.00  0.00    +0.000 H 
ATOM     21  C18 UNL A   1      31.885  41.242  46.407  1.00  0.00    +0.000 C 
BRANCH   21   20
ATOM    113  H21 UNL A   1      30.605  42.526  47.466  1.00  0.00    +0.000 H 
ATOM     20  C17 UNL A   1      31.104  42.558  46.520  1.00  0.00    +0.000 C 
ATOM    112  H20 UNL A   1      30.437  42.619  45.685  1.00  0.00    +0.000 H 
BRANCH   20   19
ATOM     19  C16 UNL A   1      31.959  43.831  46.536  1.00  0.00    +0.000 C 
ATOM    110  H18 UNL A   1      32.894  43.602  47.003  1.00  0.00    +0.000 H 
ATOM    111  H19 UNL A   1      32.072  44.140  45.518  1.00  0.00    +0.000 H 
BRANCH   19   18
ATOM     18  C15 UNL A   1      31.319  44.999  47.287  1.00  0.00    +0.000 C 
ATOM    108  H16 UNL A   1      32.066  45.474  47.889  1.00  0.00    +0.000 H 
ATOM    109  H17 UNL A   1      30.918  45.679  46.564  1.00  0.00    +0.000 H 
BRANCH   18   17
ATOM     17  N1  UNL A   1      30.236  44.565  48.143  1.00  0.00    +0.000 N 
ATOM    107  H15 UNL A   1      29.420  44.296  47.663  1.00  0.00    +0.000 H 
BRANCH   17   15
ATOM     15  C14 UNL A   1      30.153  44.464  49.498  1.00  0.00    +0.000 C 
ATOM     16  O1  UNL A   1      29.809  45.485  50.106  1.00  0.00    +0.000 O 
BRANCH   15   13
ATOM     13  C12 UNL A   1      30.483  43.181  50.277  1.00  0.00    +0.000 C 
ATOM    103  H11 UNL A   1      30.438  43.453  51.311  1.00  0.00    +0.000 H 
BRANCH   13   12
ATOM    101  H9  UNL A   1      26.300  41.273  51.091  1.00  0.00    +0.000 H 
ATOM    102  H10 UNL A   1      27.859  43.110  51.153  1.00  0.00    +0.000 H 
ATOM    135  H43 UNL A   1      30.654  40.801  49.051  1.00  0.00    +0.000 H 
ATOM    136  H44 UNL A   1      29.035  39.027  48.847  1.00  0.00    +0.000 H 
ATOM      9  C8  UNL A   1      27.521  39.963  49.980  1.00  0.00    +0.000 C 
ATOM     10  C9  UNL A   1      27.221  41.166  50.639  1.00  0.00    +0.000 C 
ATOM     11  C10 UNL A   1      28.136  42.227  50.698  1.00  0.00    +0.000 C 
ATOM     12  C11 UNL A   1      29.415  42.106  50.152  1.00  0.00    +0.000 C 
ATOM     90  C66 UNL A   1      29.722  40.915  49.479  1.00  0.00    +0.000 C 
ATOM     91  C67 UNL A   1      28.787  39.876  49.378  1.00  0.00    +0.000 C 
BRANCH    9    8
ATOM     98  H6  UNL A   1      24.010  35.929  49.797  1.00  0.00    +0.000 H 
ATOM     99  H7  UNL A   1      26.212  35.669  48.820  1.00  0.00    +0.000 H 
ATOM      4  C3  UNL A   1      24.340  37.905  50.458  1.00  0.00    +0.000 C 
ATOM      5  C4  UNL A   1      24.689  36.705  49.840  1.00  0.00    +0.000 C 
ATOM      6  C5  UNL A   1      25.955  36.556  49.280  1.00  0.00    +0.000 C 
ATOM      7  C6  UNL A   1      26.877  37.605  49.340  1.00  0.00    +0.000 C 
ATOM      8  C7  UNL A   1      26.557  38.835  49.946  1.00  0.00    +0.000 C 
ATOM    137  H45 UNL A   1      25.006  39.835  50.972  1.00  0.00    +0.000 H 
ATOM    100  H8  UNL A   1      27.814  37.476  48.930  1.00  0.00    +0.000 H 
ATOM     92  C68 UNL A   1      25.271  38.952  50.509  1.00  0.00    +0.000 C 
BRANCH    4    3
ATOM      3  S1  UNL A   1      22.754  38.074  51.252  1.00  0.00    +0.000 S 
BRANCH    3    2
ATOM     97  H5  UNL A   1      22.608  35.889  52.180  1.00  0.00    +0.000 H 
ATOM      2  C2  UNL A   1      22.209  36.334  51.291  1.00  0.00    +0.000 C 
ATOM     96  H4  UNL A   1      22.568  35.843  50.410  1.00  0.00    +0.000 H 
BRANCH    2    1
ATOM      1  C1  UNL A   1      20.698  36.195  51.345  1.00  0.00    +0.000 C 
ATOM     93  H1  UNL A   1      20.348  35.751  50.436  1.00  0.00    +0.000 H 
ATOM     94  H2  UNL A   1      20.255  37.162  51.463  1.00  0.00    +0.000 H 
ATOM     95  H3  UNL A   1      20.426  35.575  52.173  1.00  0.00    +0.000 H 
ENDBRANCH    2    1
ENDBRANCH    3    2
ENDBRANCH    4    3
ENDBRANCH    9    8
ENDBRANCH   13   12
BRANCH   13   14
ATOM    105  H13 UNL A   1      32.249  42.255  51.050  1.00  0.00    +0.000 H 
ATOM    106  H14 UNL A   1      32.560  43.550  49.919  1.00  0.00    +0.000 H 
ATOM     14  C13 UNL A   1      31.932  42.711  50.136  1.00  0.00    +0.000 C 
ATOM    104  H12 UNL A   1      32.000  41.999  49.340  1.00  0.00    +0.000 H 
ENDBRANCH   13   14
ENDBRANCH   15   13
ENDBRANCH   17   15
ENDBRANCH   18   17
ENDBRANCH   19   18
ENDBRANCH   20   19
ENDBRANCH   21   20
ENDBRANCH   22   21
ENDBRANCH   23   22
ENDBRANCH   24   23
ENDBRANCH   25   24
ENDBRANCH   27   25
ENDBRANCH   31   30
BRANCH   35   36
ATOM     36  C30 UNL A   1      21.777  36.083  46.480  1.00  0.00    +0.000 C 
ATOM     37  C31 UNL A   1      21.068  35.910  45.282  1.00  0.00    +0.000 C 
ATOM     38  F1  UNL A   1      20.758  36.971  44.522  1.00  0.00    +0.000 F 
ATOM     39  C32 UNL A   1      20.644  34.647  44.876  1.00  0.00    +0.000 C 
ATOM     40  F2  UNL A   1      19.932  34.511  43.749  1.00  0.00    +0.000 F 
ATOM     41  C33 UNL A   1      20.949  33.532  45.641  1.00  0.00    +0.000 C 
ATOM     42  F3  UNL A   1      20.548  32.316  45.246  1.00  0.00    +0.000 F 
ATOM     43  C34 UNL A   1      21.664  33.677  46.821  1.00  0.00    +0.000 C 
ATOM     44  F4  UNL A   1      21.968  32.599  47.556  1.00  0.00    +0.000 F 
ATOM     45  C35 UNL A   1      22.066  34.942  47.243  1.00  0.00    +0.000 C 
ATOM     46  F5  UNL A   1      22.746  35.052  48.394  1.00  0.00    +0.000 F 
ENDBRANCH   35   36
BRANCH   52   53
ATOM     53  C41 UNL A   1      19.272  41.763  50.140  1.00  0.00    +0.000 C 
ATOM     54  C42 UNL A   1      18.267  42.531  49.535  1.00  0.00    +0.000 C 
ATOM     55  F6  UNL A   1      18.424  42.982  48.281  1.00  0.00    +0.000 F 
ATOM     56  C43 UNL A   1      17.110  42.869  50.232  1.00  0.00    +0.000 C 
ATOM     57  F7  UNL A   1      16.181  43.641  49.649  1.00  0.00    +0.000 F 
ATOM     58  C44 UNL A   1      16.923  42.423  51.532  1.00  0.00    +0.000 C 
ATOM     59  F8  UNL A   1      15.807  42.745  52.197  1.00  0.00    +0.000 F 
ATOM     60  C45 UNL A   1      17.897  41.648  52.142  1.00  0.00    +0.000 C 
ATOM     61  F9  UNL A   1      17.713  41.206  53.394  1.00  0.00    +0.000 F 
ATOM     62  C46 UNL A   1      19.067  41.329  51.458  1.00  0.00    +0.000 C 
ATOM     63  F10 UNL A   1      19.996  40.588  52.078  1.00  0.00    +0.000 F 
ENDBRANCH   52   53
BRANCH   67   68
ATOM     68  C50 UNL A   1      25.229  45.136  48.861  1.00  0.00    +0.000 C 
ATOM     69  C51 UNL A   1      25.759  45.431  50.124  1.00  0.00    +0.000 C 
ATOM     70  F11 UNL A   1      25.808  44.481  51.068  1.00  0.00    +0.000 F 
ATOM     71  C52 UNL A   1      26.206  46.714  50.434  1.00  0.00    +0.000 C 
ATOM     72  F12 UNL A   1      26.671  46.981  51.663  1.00  0.00    +0.000 F 
ATOM     73  C53 UNL A   1      26.157  47.718  49.479  1.00  0.00    +0.000 C 
ATOM     74  F13 UNL A   1      26.591  48.950  49.776  1.00  0.00    +0.000 F 
ATOM     75  C54 UNL A   1      25.651  47.444  48.216  1.00  0.00    +0.000 C 
ATOM     76  F14 UNL A   1      25.614  48.408  47.286  1.00  0.00    +0.000 F 
ATOM     77  C55 UNL A   1      25.181  46.168  47.914  1.00  0.00    +0.000 C 
ATOM     78  F15 UNL A   1      24.687  45.933  46.688  1.00  0.00    +0.000 F 
ENDBRANCH   67   68
TORSDOF 21
ENDMDL
MODEL 10
REMARK VINA RESULT:      -8.5     42.457     47.812
ROOT
ATOM    129  H37 UNL A   1      22.814  45.391  49.971  1.00  0.00    +0.000 H 
ATOM    130  H38 UNL A   1      20.671  44.098  50.503  1.00  0.00    +0.000 H 
ATOM    131  H39 UNL A   1      24.102  36.146  45.409  1.00  0.00    +0.000 H 
ATOM    132  H40 UNL A   1      26.413  37.239  45.261  1.00  0.00    +0.000 H 
ATOM     31  C26 UNL A   1      26.494  39.893  46.298  1.00  0.00    +0.000 C 
ATOM     32  C27 UNL A   1      25.342  38.926  46.333  1.00  0.00    +0.000 C 
ATOM     33  N3  UNL A   1      24.145  39.084  46.838  1.00  0.00    +0.000 N 
ATOM     34  C28 UNL A   1      23.459  37.908  46.561  1.00  0.00    +0.000 C 
ATOM     35  C29 UNL A   1      22.200  37.561  46.920  1.00  0.00    +0.000 C 
ATOM     47  C36 UNL A   1      21.320  38.389  47.702  1.00  0.00    +0.000 C 
ATOM     48  C37 UNL A   1      20.055  38.094  48.180  1.00  0.00    +0.000 C 
ATOM     49  C38 UNL A   1      19.568  39.219  48.855  1.00  0.00    +0.000 C 
ATOM     50  C39 UNL A   1      20.547  40.199  48.835  1.00  0.00    +0.000 C 
ATOM     51  N4  UNL A   1      21.615  39.678  48.121  1.00  0.00    +0.000 N 
ATOM     52  C40 UNL A   1      20.513  41.513  49.421  1.00  0.00    +0.000 C 
ATOM     64  C47 UNL A   1      21.522  42.415  49.368  1.00  0.00    +0.000 C 
ATOM     65  N5  UNL A   1      22.770  42.293  48.770  1.00  0.00    +0.000 N 
ATOM     66  C48 UNL A   1      23.381  43.433  48.978  1.00  0.00    +0.000 C 
ATOM     67  C49 UNL A   1      24.767  43.853  48.574  1.00  0.00    +0.000 C 
ATOM     79  C56 UNL A   1      25.561  42.976  47.932  1.00  0.00    +0.000 C 
ATOM     80  C57 UNL A   1      26.928  43.237  47.489  1.00  0.00    +0.000 C 
ATOM     81  C58 UNL A   1      27.394  42.154  46.847  1.00  0.00    +0.000 C 
ATOM     82  C59 UNL A   1      26.368  41.111  46.858  1.00  0.00    +0.000 C 
ATOM     83  N6  UNL A   1      25.319  41.684  47.533  1.00  0.00    +0.000 N 
ATOM     84  C60 UNL A   1      22.578  44.420  49.713  1.00  0.00    +0.000 C 
ATOM     85  C61 UNL A   1      21.470  43.736  49.960  1.00  0.00    +0.000 C 
ATOM     86  C62 UNL A   1      24.358  37.064  45.806  1.00  0.00    +0.000 C 
ATOM     87  C63 UNL A   1      25.556  37.621  45.691  1.00  0.00    +0.000 C 
ATOM    123  H31 UNL A   1      19.556  37.199  48.059  1.00  0.00    +0.000 H 
ATOM    124  H32 UNL A   1      18.638  39.303  49.294  1.00  0.00    +0.000 H 
ATOM    125  H33 UNL A   1      22.459  40.152  47.941  1.00  0.00    +0.000 H 
ATOM    126  H34 UNL A   1      27.451  44.112  47.647  1.00  0.00    +0.000 H 
ATOM    127  H35 UNL A   1      28.328  42.072  46.413  1.00  0.00    +0.000 H 
ATOM    128  H36 UNL A   1      24.474  41.212  47.715  1.00  0.00    +0.000 H 
ENDROOT
BRANCH   31   30
ATOM    133  H41 UNL A   1      27.626  41.149  44.217  1.00  0.00    +0.000 H 
ATOM    134  H42 UNL A   1      29.640  40.561  43.004  1.00  0.00    +0.000 H 
ATOM     29  C24 UNL A   1      28.517  38.434  45.976  1.00  0.00    +0.000 C 
ATOM     88  C64 UNL A   1      28.183  40.332  44.511  1.00  0.00    +0.000 C 
ATOM     89  C65 UNL A   1      29.362  40.017  43.836  1.00  0.00    +0.000 C 
ATOM    122  H30 UNL A   1      28.186  37.822  46.738  1.00  0.00    +0.000 H 
ATOM     27  C22 UNL A   1      30.165  38.966  44.285  1.00  0.00    +0.000 C 
ATOM     28  C23 UNL A   1      29.729  38.156  45.338  1.00  0.00    +0.000 C 
ATOM    121  H29 UNL A   1      30.302  37.354  45.645  1.00  0.00    +0.000 H 
ATOM     30  C25 UNL A   1      27.748  39.542  45.586  1.00  0.00    +0.000 C 
BRANCH   27   25
ATOM     25  C21 UNL A   1      31.457  38.651  43.632  1.00  0.00    +0.000 C 
ATOM     26  O2  UNL A   1      31.585  37.599  43.020  1.00  0.00    +0.000 O 
BRANCH   25   24
ATOM    120  H28 UNL A   1      32.706  40.022  42.876  1.00  0.00    +0.000 H 
ATOM     24  N2  UNL A   1      32.509  39.532  43.707  1.00  0.00    +0.000 N 
BRANCH   24   23
ATOM    119  H27 UNL A   1      34.384  39.872  44.476  1.00  0.00    +0.000 H 
ATOM    118  H26 UNL A   1      33.248  39.097  45.585  1.00  0.00    +0.000 H 
ATOM     23  C20 UNL A   1      33.375  39.847  44.833  1.00  0.00    +0.000 C 
BRANCH   23   22
ATOM    116  H24 UNL A   1      33.922  41.552  45.967  1.00  0.00    +0.000 H 
ATOM    117  H25 UNL A   1      32.782  41.846  44.620  1.00  0.00    +0.000 H 
ATOM     22  C19 UNL A   1      33.056  41.212  45.438  1.00  0.00    +0.000 C 
BRANCH   22   21
ATOM    114  H22 UNL A   1      31.180  40.473  46.099  1.00  0.00    +0.000 H 
ATOM    115  H23 UNL A   1      32.287  41.066  47.381  1.00  0.00    +0.000 H 
ATOM     21  C18 UNL A   1      31.870  41.229  46.409  1.00  0.00    +0.000 C 
BRANCH   21   20
ATOM    113  H21 UNL A   1      30.581  42.532  47.435  1.00  0.00    +0.000 H 
ATOM     20  C17 UNL A   1      31.104  42.556  46.502  1.00  0.00    +0.000 C 
ATOM    112  H20 UNL A   1      30.458  42.625  45.651  1.00  0.00    +0.000 H 
BRANCH   20   19
ATOM     19  C16 UNL A   1      31.976  43.816  46.538  1.00  0.00    +0.000 C 
ATOM    110  H18 UNL A   1      32.881  43.584  47.057  1.00  0.00    +0.000 H 
ATOM    111  H19 UNL A   1      32.145  44.104  45.522  1.00  0.00    +0.000 H 
BRANCH   19   18
ATOM     18  C15 UNL A   1      31.315  45.008  47.232  1.00  0.00    +0.000 C 
ATOM    108  H16 UNL A   1      32.031  45.472  47.880  1.00  0.00    +0.000 H 
ATOM    109  H17 UNL A   1      30.980  45.689  46.477  1.00  0.00    +0.000 H 
BRANCH   18   17
ATOM     17  N1  UNL A   1      30.166  44.610  48.016  1.00  0.00    +0.000 N 
ATOM    107  H15 UNL A   1      29.396  44.303  47.486  1.00  0.00    +0.000 H 
BRANCH   17   15
ATOM     15  C14 UNL A   1      29.968  44.586  49.363  1.00  0.00    +0.000 C 
ATOM     16  O1  UNL A   1      29.395  45.567  49.853  1.00  0.00    +0.000 O 
BRANCH   15   13
ATOM     13  C12 UNL A   1      30.433  43.437  50.271  1.00  0.00    +0.000 C 
ATOM    103  H11 UNL A   1      30.283  43.784  51.273  1.00  0.00    +0.000 H 
BRANCH   13   12
ATOM    101  H9  UNL A   1      29.348  39.099  48.930  1.00  0.00    +0.000 H 
ATOM    102  H10 UNL A   1      30.893  40.930  49.196  1.00  0.00    +0.000 H 
ATOM    135  H43 UNL A   1      27.948  43.112  51.227  1.00  0.00    +0.000 H 
ATOM    136  H44 UNL A   1      26.461  41.219  51.103  1.00  0.00    +0.000 H 
ATOM      9  C8  UNL A   1      27.746  39.987  49.973  1.00  0.00    +0.000 C 
ATOM     10  C9  UNL A   1      29.043  39.945  49.435  1.00  0.00    +0.000 C 
ATOM     11  C10 UNL A   1      29.935  41.018  49.566  1.00  0.00    +0.000 C 
ATOM     12  C11 UNL A   1      29.546  42.206  50.191  1.00  0.00    +0.000 C 
ATOM     90  C66 UNL A   1      28.260  42.255  50.745  1.00  0.00    +0.000 C 
ATOM     91  C67 UNL A   1      27.388  41.161  50.656  1.00  0.00    +0.000 C 
BRANCH    9    8
ATOM     98  H6  UNL A   1      24.360  35.879  49.431  1.00  0.00    +0.000 H 
ATOM     99  H7  UNL A   1      23.597  37.964  50.404  1.00  0.00    +0.000 H 
ATOM      4  C3  UNL A   1      26.333  36.548  49.100  1.00  0.00    +0.000 C 
ATOM      5  C4  UNL A   1      25.012  36.673  49.527  1.00  0.00    +0.000 C 
ATOM      6  C5  UNL A   1      24.574  37.871  50.086  1.00  0.00    +0.000 C 
ATOM      7  C6  UNL A   1      25.456  38.949  50.215  1.00  0.00    +0.000 C 
ATOM      8  C7  UNL A   1      26.799  38.856  49.805  1.00  0.00    +0.000 C 
ATOM    137  H45 UNL A   1      28.184  37.534  48.916  1.00  0.00    +0.000 H 
ATOM    100  H8  UNL A   1      25.113  39.834  50.620  1.00  0.00    +0.000 H 
ATOM     92  C68 UNL A   1      27.209  37.634  49.239  1.00  0.00    +0.000 C 
BRANCH    4    3
ATOM      3  S1  UNL A   1      26.878  35.049  48.307  1.00  0.00    +0.000 S 
BRANCH    3    2
ATOM     97  H5  UNL A   1      24.511  34.952  48.101  1.00  0.00    +0.000 H 
ATOM      2  C2  UNL A   1      25.281  34.211  48.036  1.00  0.00    +0.000 C 
ATOM     96  H4  UNL A   1      25.161  33.452  48.782  1.00  0.00    +0.000 H 
BRANCH    2    1
ATOM      1  C1  UNL A   1      25.184  33.566  46.665  1.00  0.00    +0.000 C 
ATOM     93  H1  UNL A   1      24.326  33.947  46.152  1.00  0.00    +0.000 H 
ATOM     94  H2  UNL A   1      25.091  32.506  46.775  1.00  0.00    +0.000 H 
ATOM     95  H3  UNL A   1      26.066  33.790  46.102  1.00  0.00    +0.000 H 
ENDBRANCH    2    1
ENDBRANCH    3    2
ENDBRANCH    4    3
ENDBRANCH    9    8
ENDBRANCH   13   12
BRANCH   13   14
ATOM    105  H13 UNL A   1      32.203  42.514  51.038  1.00  0.00    +0.000 H 
ATOM    106  H14 UNL A   1      32.461  44.110  50.378  1.00  0.00    +0.000 H 
ATOM     14  C13 UNL A   1      31.942  43.184  50.247  1.00  0.00    +0.000 C 
ATOM    104  H12 UNL A   1      32.215  42.751  49.308  1.00  0.00    +0.000 H 
ENDBRANCH   13   14
ENDBRANCH   15   13
ENDBRANCH   17   15
ENDBRANCH   18   17
ENDBRANCH   19   18
ENDBRANCH   20   19
ENDBRANCH   21   20
ENDBRANCH   22   21
ENDBRANCH   23   22
ENDBRANCH   24   23
ENDBRANCH   25   24
ENDBRANCH   27   25
ENDBRANCH   31   30
BRANCH   35   36
ATOM     36  C30 UNL A   1      21.696  36.218  46.476  1.00  0.00    +0.000 C 
ATOM     37  C31 UNL A   1      21.730  35.103  47.326  1.00  0.00    +0.000 C 
ATOM     38  F1  UNL A   1      22.271  35.203  48.549  1.00  0.00    +0.000 F 
ATOM     39  C32 UNL A   1      21.237  33.869  46.909  1.00  0.00    +0.000 C 
ATOM     40  F2  UNL A   1      21.317  32.807  47.723  1.00  0.00    +0.000 F 
ATOM     41  C33 UNL A   1      20.672  33.735  45.650  1.00  0.00    +0.000 C 
ATOM     42  F3  UNL A   1      20.190  32.550  45.252  1.00  0.00    +0.000 F 
ATOM     43  C34 UNL A   1      20.612  34.829  44.799  1.00  0.00    +0.000 C 
ATOM     44  F4  UNL A   1      20.057  34.704  43.586  1.00  0.00    +0.000 F 
ATOM     45  C35 UNL A   1      21.129  36.058  45.203  1.00  0.00    +0.000 C 
ATOM     46  F5  UNL A   1      21.067  37.094  44.354  1.00  0.00    +0.000 F 
ENDBRANCH   35   36
BRANCH   52   53
ATOM     53  C41 UNL A   1      19.274  41.915  50.166  1.00  0.00    +0.000 C 
ATOM     54  C42 UNL A   1      18.265  42.673  49.557  1.00  0.00    +0.000 C 
ATOM     55  F6  UNL A   1      18.413  43.103  48.295  1.00  0.00    +0.000 F 
ATOM     56  C43 UNL A   1      17.114  43.025  50.257  1.00  0.00    +0.000 C 
ATOM     57  F7  UNL A   1      16.181  43.788  49.669  1.00  0.00    +0.000 F 
ATOM     58  C44 UNL A   1      16.937  42.600  51.565  1.00  0.00    +0.000 C 
ATOM     59  F8  UNL A   1      15.826  42.936  52.234  1.00  0.00    +0.000 F 
ATOM     60  C45 UNL A   1      17.915  41.835  52.181  1.00  0.00    +0.000 C 
ATOM     61  F9  UNL A   1      17.741  41.414  53.442  1.00  0.00    +0.000 F 
ATOM     62  C46 UNL A   1      19.079  41.503  51.493  1.00  0.00    +0.000 C 
ATOM     63  F10 UNL A   1      20.012  40.772  52.119  1.00  0.00    +0.000 F 
ENDBRANCH   52   53
BRANCH   67   68
ATOM     68  C50 UNL A   1      25.277  45.210  48.899  1.00  0.00    +0.000 C 
ATOM     69  C51 UNL A   1      25.233  46.239  47.948  1.00  0.00    +0.000 C 
ATOM     70  F11 UNL A   1      24.747  45.997  46.723  1.00  0.00    +0.000 F 
ATOM     71  C52 UNL A   1      25.724  47.509  48.242  1.00  0.00    +0.000 C 
ATOM     72  F12 UNL A   1      25.708  48.465  47.301  1.00  0.00    +0.000 F 
ATOM     73  C53 UNL A   1      26.242  47.783  49.498  1.00  0.00    +0.000 C 
ATOM     74  F13 UNL A   1      26.710  49.006  49.781  1.00  0.00    +0.000 F 
ATOM     75  C54 UNL A   1      26.280  46.784  50.460  1.00  0.00    +0.000 C 
ATOM     76  F14 UNL A   1      26.767  47.047  51.680  1.00  0.00    +0.000 F 
ATOM     77  C55 UNL A   1      25.812  45.506  50.160  1.00  0.00    +0.000 C 
ATOM     78  F15 UNL A   1      25.870  44.556  51.105  1.00  0.00    +0.000 F 
ENDBRANCH   67   68
TORSDOF 21
ENDMDL
