MODEL 1
REMARK VINA RESULT:      -7.8      0.000      0.000
ROOT
ATOM    138  H39 UNL A   1      33.690  29.230  50.522  1.00  0.00    +0.000 H 
ATOM    139  H40 UNL A   1      35.592  30.377  49.156  1.00  0.00    +0.000 H 
ATOM    140  H41 UNL A   1      31.954  31.637  47.631  1.00  0.00    +0.000 H 
ATOM    141  H42 UNL A   1      28.645  34.894  43.248  1.00  0.00    +0.000 H 
ATOM    142  H43 UNL A   1      26.797  33.780  44.591  1.00  0.00    +0.000 H 
ATOM    143  H44 UNL A   1      30.436  32.613  46.226  1.00  0.00    +0.000 H 
ATOM    144  H45 UNL A   1      33.983  34.927  43.528  1.00  0.00    +0.000 H 
ATOM    145  H46 UNL A   1      35.700  33.640  44.924  1.00  0.00    +0.000 H 
ATOM    146  H47 UNL A   1      28.336  29.587  50.420  1.00  0.00    +0.000 H 
ATOM    147  H48 UNL A   1      26.613  30.435  48.726  1.00  0.00    +0.000 H 
ATOM     41  C29 UNL A   1      27.729  32.091  46.690  1.00  0.00    +0.000 C 
ATOM     42  C30 UNL A   1      28.460  31.329  47.760  1.00  0.00    +0.000 C 
ATOM     43  N7  UNL A   1      29.746  31.253  47.988  1.00  0.00    +0.000 N 
ATOM     44  C31 UNL A   1      29.883  30.456  49.118  1.00  0.00    +0.000 C 
ATOM     45  C32 UNL A   1      31.020  30.028  49.716  1.00  0.00    +0.000 C 
ATOM     57  C39 UNL A   1      32.345  30.341  49.252  1.00  0.00    +0.000 C 
ATOM     58  C40 UNL A   1      33.559  29.893  49.743  1.00  0.00    +0.000 C 
ATOM     59  C41 UNL A   1      34.580  30.498  48.999  1.00  0.00    +0.000 C 
ATOM     60  C42 UNL A   1      33.999  31.285  48.016  1.00  0.00    +0.000 C 
ATOM     61  N8  UNL A   1      32.629  31.181  48.185  1.00  0.00    +0.000 N 
ATOM     62  C43 UNL A   1      34.647  32.072  47.000  1.00  0.00    +0.000 C 
ATOM     74  C50 UNL A   1      34.006  32.809  46.060  1.00  0.00    +0.000 C 
ATOM     75  N9  UNL A   1      32.643  32.976  45.859  1.00  0.00    +0.000 N 
ATOM     76  C51 UNL A   1      32.525  33.794  44.842  1.00  0.00    +0.000 C 
ATOM     77  C52 UNL A   1      31.278  34.303  44.173  1.00  0.00    +0.000 C 
ATOM     89  C59 UNL A   1      30.078  33.885  44.617  1.00  0.00    +0.000 C 
ATOM     90  C60 UNL A   1      28.785  34.267  44.056  1.00  0.00    +0.000 C 
ATOM     91  C61 UNL A   1      27.810  33.672  44.760  1.00  0.00    +0.000 C 
ATOM     92  C62 UNL A   1      28.411  32.844  45.806  1.00  0.00    +0.000 C 
ATOM     93  N10 UNL A   1      29.760  33.038  45.651  1.00  0.00    +0.000 N 
ATOM     94  C63 UNL A   1      33.807  34.260  44.295  1.00  0.00    +0.000 C 
ATOM     95  C64 UNL A   1      34.676  33.598  45.046  1.00  0.00    +0.000 C 
ATOM     96  C65 UNL A   1      28.549  30.117  49.560  1.00  0.00    +0.000 C 
ATOM     97  C66 UNL A   1      27.635  30.573  48.716  1.00  0.00    +0.000 C 
ENDROOT
BRANCH   41   40
ATOM     98  C67 UNL A   1      25.499  33.039  47.299  1.00  0.00    +0.000 C 
ATOM     99  C68 UNL A   1      24.108  32.986  47.290  1.00  0.00    +0.000 C 
ATOM     37  C25 UNL A   1      23.451  32.013  46.530  1.00  0.00    +0.000 C 
ATOM     38  C26 UNL A   1      24.185  31.027  45.866  1.00  0.00    +0.000 C 
ATOM     39  C27 UNL A   1      25.579  31.039  45.933  1.00  0.00    +0.000 C 
ATOM    136  H37 UNL A   1      23.698  30.293  45.329  1.00  0.00    +0.000 H 
ATOM     40  C28 UNL A   1      26.247  32.057  46.632  1.00  0.00    +0.000 C 
ATOM    137  H38 UNL A   1      26.121  30.296  45.466  1.00  0.00    +0.000 H 
ATOM    148  H49 UNL A   1      25.981  33.803  47.798  1.00  0.00    +0.000 H 
ATOM    149  H50 UNL A   1      23.561  33.663  47.846  1.00  0.00    +0.000 H 
BRANCH   37   35
ATOM     35  C24 UNL A   1      21.975  31.983  46.429  1.00  0.00    +0.000 C 
ATOM     36  O5  UNL A   1      21.295  32.567  47.259  1.00  0.00    +0.000 O 
BRANCH   35   34
ATOM     34  N6  UNL A   1      21.376  31.287  45.410  1.00  0.00    +0.000 N 
ATOM    135  H36 UNL A   1      21.403  30.306  45.497  1.00  0.00    +0.000 H 
BRANCH   34   33
ATOM     33  C23 UNL A   1      20.707  31.789  44.225  1.00  0.00    +0.000 C 
ATOM    133  H34 UNL A   1      21.220  32.664  43.884  1.00  0.00    +0.000 H 
ATOM    134  H35 UNL A   1      20.724  31.014  43.486  1.00  0.00    +0.000 H 
BRANCH   33   32
ATOM    131  H32 UNL A   1      18.643  31.331  44.160  1.00  0.00    +0.000 H 
ATOM    132  H33 UNL A   1      19.177  32.333  45.542  1.00  0.00    +0.000 H 
ATOM     32  C22 UNL A   1      19.251  32.147  44.491  1.00  0.00    +0.000 C 
BRANCH   32   31
ATOM    129  H30 UNL A   1      19.519  34.164  43.896  1.00  0.00    +0.000 H 
ATOM    130  H31 UNL A   1      18.558  33.140  42.783  1.00  0.00    +0.000 H 
ATOM     31  C21 UNL A   1      18.758  33.418  43.797  1.00  0.00    +0.000 C 
BRANCH   31   30
ATOM     30  C20 UNL A   1      17.451  34.001  44.340  1.00  0.00    +0.000 C 
ATOM    127  H28 UNL A   1      16.819  34.228  43.506  1.00  0.00    +0.000 H 
ATOM    128  H29 UNL A   1      17.047  33.259  44.995  1.00  0.00    +0.000 H 
BRANCH   30   29
ATOM    125  H26 UNL A   1      18.298  35.072  45.966  1.00  0.00    +0.000 H 
ATOM     29  C19 UNL A   1      17.600  35.271  45.180  1.00  0.00    +0.000 C 
ATOM    126  H27 UNL A   1      17.927  36.039  44.510  1.00  0.00    +0.000 H 
BRANCH   29   28
ATOM    124  H25 UNL A   1      15.748  34.927  46.143  1.00  0.00    +0.000 H 
ATOM    123  H24 UNL A   1      15.761  36.337  45.081  1.00  0.00    +0.000 H 
ATOM     28  C18 UNL A   1      16.307  35.775  45.811  1.00  0.00    +0.000 C 
BRANCH   28   27
ATOM    122  H23 UNL A   1      16.720  37.572  46.753  1.00  0.00    +0.000 H 
ATOM     27  N5  UNL A   1      16.561  36.622  46.958  1.00  0.00    +0.000 N 
BRANCH   27   25
ATOM     25  C17 UNL A   1      16.612  36.295  48.278  1.00  0.00    +0.000 C 
ATOM     26  O4  UNL A   1      17.560  35.595  48.650  1.00  0.00    +0.000 O 
BRANCH   25   22
ATOM    118  H19 UNL A   1      15.616  36.025  50.103  1.00  0.00    +0.000 H 
ATOM     22  C15 UNL A   1      15.524  36.701  49.280  1.00  0.00    +0.000 C 
BRANCH   22   21
ATOM    117  H18 UNL A   1      15.262  38.808  49.457  1.00  0.00    +0.000 H 
ATOM     21  N4  UNL A   1      15.730  38.036  49.850  1.00  0.00    +0.000 N 
BRANCH   21   19
ATOM     19  C14 UNL A   1      16.557  38.226  50.911  1.00  0.00    +0.000 C 
ATOM     20  O2  UNL A   1      16.243  37.663  51.962  1.00  0.00    +0.000 O 
BRANCH   19   16
ATOM    113  H14 UNL A   1      18.472  38.783  51.588  1.00  0.00    +0.000 H 
ATOM     16  C12 UNL A   1      17.828  39.093  50.793  1.00  0.00    +0.000 C 
BRANCH   16   15
ATOM     15  N3  UNL A   1      18.479  38.804  49.525  1.00  0.00    +0.000 N 
ATOM    112  H13 UNL A   1      17.928  38.449  48.791  1.00  0.00    +0.000 H 
BRANCH   15   13
ATOM     13  C11 UNL A   1      19.820  39.000  49.295  1.00  0.00    +0.000 C 
ATOM     14  O1  UNL A   1      20.166  40.144  48.984  1.00  0.00    +0.000 O 
BRANCH   13    2
ATOM      2  C1  UNL A   1      20.865  37.865  49.495  1.00  0.00    +0.000 C 
ATOM    103  H4  UNL A   1      21.824  38.340  49.508  1.00  0.00    +0.000 H 
BRANCH    2    1
ATOM      1  N1  UNL A   1      20.712  37.239  50.826  1.00  0.00    +0.000 N 
ATOM    100  H1  UNL A   1      19.958  37.701  51.334  1.00  0.00    +0.000 H 
ATOM    101  H2  UNL A   1      21.583  37.335  51.348  1.00  0.00    +0.000 H 
ATOM    102  H3  UNL A   1      20.490  36.250  50.712  1.00  0.00    +0.000 H 
ENDBRANCH    2    1
BRANCH    2    3
ATOM    105  H6  UNL A   1      21.147  35.964  48.749  1.00  0.00    +0.000 H 
ATOM      3  C2  UNL A   1      21.132  36.931  48.291  1.00  0.00    +0.000 C 
ATOM    104  H5  UNL A   1      20.372  37.143  47.569  1.00  0.00    +0.000 H 
BRANCH    3    4
ATOM      4  C3  UNL A   1      22.450  36.958  47.546  1.00  0.00    +0.000 C 
ATOM      5  C4  UNL A   1      23.613  37.658  47.821  1.00  0.00    +0.000 C 
ATOM      6  N2  UNL A   1      24.588  37.252  46.945  1.00  0.00    +0.000 N 
ATOM      7  C5  UNL A   1      24.054  36.416  45.999  1.00  0.00    +0.000 C 
ATOM      8  C6  UNL A   1      24.658  35.804  44.892  1.00  0.00    +0.000 C 
ATOM      9  C7  UNL A   1      23.838  35.065  44.035  1.00  0.00    +0.000 C 
ATOM    106  H7  UNL A   1      23.728  38.367  48.562  1.00  0.00    +0.000 H 
ATOM     11  C9  UNL A   1      21.902  35.505  45.428  1.00  0.00    +0.000 C 
ATOM     12  C10 UNL A   1      22.703  36.262  46.309  1.00  0.00    +0.000 C 
ATOM     10  C8  UNL A   1      22.476  34.931  44.287  1.00  0.00    +0.000 C 
ATOM    107  H8  UNL A   1      25.534  37.522  46.990  1.00  0.00    +0.000 H 
ATOM    111  H12 UNL A   1      20.897  35.374  45.623  1.00  0.00    +0.000 H 
ATOM    108  H9  UNL A   1      25.671  35.897  44.717  1.00  0.00    +0.000 H 
ATOM    110  H11 UNL A   1      21.884  34.403  43.627  1.00  0.00    +0.000 H 
ATOM    109  H10 UNL A   1      24.250  34.612  43.203  1.00  0.00    +0.000 H 
ENDBRANCH    3    4
ENDBRANCH    2    3
ENDBRANCH   13    2
ENDBRANCH   15   13
ENDBRANCH   16   15
BRANCH   16   17
ATOM     17  C13 UNL A   1      17.782  40.560  51.245  1.00  0.00    +0.000 C 
ATOM    114  H15 UNL A   1      16.803  40.744  51.633  1.00  0.00    +0.000 H 
ATOM    115  H16 UNL A   1      18.044  41.120  50.372  1.00  0.00    +0.000 H 
BRANCH   17   18
ATOM     18  S1  UNL A   1      18.979  41.097  52.511  1.00  0.00    +0.000 S 
ATOM    116  H17 UNL A   1      19.574  40.006  53.064  1.00  0.00    +0.000 H 
ENDBRANCH   17   18
ENDBRANCH   16   17
ENDBRANCH   19   16
ENDBRANCH   21   19
ENDBRANCH   22   21
BRANCH   22   23
ATOM    119  H20 UNL A   1      13.737  35.556  49.027  1.00  0.00    +0.000 H 
ATOM     23  C16 UNL A   1      14.108  36.509  48.712  1.00  0.00    +0.000 C 
ATOM    120  H21 UNL A   1      14.172  36.572  47.646  1.00  0.00    +0.000 H 
BRANCH   23   24
ATOM    121  H22 UNL A   1      13.112  38.197  48.466  1.00  0.00    +0.000 H 
ATOM     24  O3  UNL A   1      13.204  37.522  49.155  1.00  0.00    +0.000 O 
ENDBRANCH   23   24
ENDBRANCH   22   23
ENDBRANCH   25   22
ENDBRANCH   27   25
ENDBRANCH   28   27
ENDBRANCH   29   28
ENDBRANCH   30   29
ENDBRANCH   31   30
ENDBRANCH   32   31
ENDBRANCH   33   32
ENDBRANCH   34   33
ENDBRANCH   35   34
ENDBRANCH   37   35
ENDBRANCH   41   40
BRANCH   45   46
ATOM     46  C33 UNL A   1      30.879  29.167  50.937  1.00  0.00    +0.000 C 
ATOM     47  C34 UNL A   1      30.858  29.719  52.228  1.00  0.00    +0.000 C 
ATOM     48  F1  UNL A   1      31.013  31.040  52.400  1.00  0.00    +0.000 F 
ATOM     49  C35 UNL A   1      30.717  28.908  53.352  1.00  0.00    +0.000 C 
ATOM     50  F2  UNL A   1      30.747  29.454  54.576  1.00  0.00    +0.000 F 
ATOM     51  C36 UNL A   1      30.558  27.539  53.207  1.00  0.00    +0.000 C 
ATOM     52  F3  UNL A   1      30.417  26.761  54.289  1.00  0.00    +0.000 F 
ATOM     53  C37 UNL A   1      30.556  26.974  51.941  1.00  0.00    +0.000 C 
ATOM     54  F4  UNL A   1      30.393  25.651  51.798  1.00  0.00    +0.000 F 
ATOM     55  C38 UNL A   1      30.726  27.778  50.816  1.00  0.00    +0.000 C 
ATOM     56  F5  UNL A   1      30.735  27.200  49.605  1.00  0.00    +0.000 F 
ENDBRANCH   45   46
BRANCH   62   63
ATOM     65  F6  UNL A   1      36.200  30.233  45.446  1.00  0.00    +0.000 F 
ATOM     66  C46 UNL A   1      38.247  31.174  46.127  1.00  0.00    +0.000 C 
ATOM     67  F7  UNL A   1      38.907  30.267  45.393  1.00  0.00    +0.000 F 
ATOM     68  C47 UNL A   1      38.952  32.115  46.862  1.00  0.00    +0.000 C 
ATOM     69  F8  UNL A   1      40.292  32.132  46.822  1.00  0.00    +0.000 F 
ATOM     70  C48 UNL A   1      38.271  33.035  47.643  1.00  0.00    +0.000 C 
ATOM     71  F9  UNL A   1      38.950  33.953  48.343  1.00  0.00    +0.000 F 
ATOM     72  C49 UNL A   1      36.881  33.005  47.703  1.00  0.00    +0.000 C 
ATOM     73  F10 UNL A   1      36.247  33.898  48.478  1.00  0.00    +0.000 F 
ATOM     63  C44 UNL A   1      36.146  32.067  46.961  1.00  0.00    +0.000 C 
ATOM     64  C45 UNL A   1      36.856  31.159  46.162  1.00  0.00    +0.000 C 
ENDBRANCH   62   63
BRANCH   77   78
ATOM     78  C53 UNL A   1      31.357  35.230  43.015  1.00  0.00    +0.000 C 
ATOM     79  C54 UNL A   1      31.186  36.611  43.186  1.00  0.00    +0.000 C 
ATOM     80  F11 UNL A   1      30.928  37.107  44.405  1.00  0.00    +0.000 F 
ATOM     81  C55 UNL A   1      31.238  37.483  42.101  1.00  0.00    +0.000 C 
ATOM     82  F12 UNL A   1      31.027  38.793  42.286  1.00  0.00    +0.000 F 
ATOM     83  C56 UNL A   1      31.492  36.994  40.828  1.00  0.00    +0.000 C 
ATOM     84  F13 UNL A   1      31.546  37.833  39.785  1.00  0.00    +0.000 F 
ATOM     85  C57 UNL A   1      31.683  35.635  40.638  1.00  0.00    +0.000 C 
ATOM     86  F14 UNL A   1      31.943  35.159  39.411  1.00  0.00    +0.000 F 
ATOM     87  C58 UNL A   1      31.605  34.758  41.719  1.00  0.00    +0.000 C 
ATOM     88  F15 UNL A   1      31.783  33.447  41.503  1.00  0.00    +0.000 F 
ENDBRANCH   77   78
TORSDOF 28
ENDMDL
MODEL 2
REMARK VINA RESULT:      -7.7     43.677     49.109
ROOT
ATOM    138  H39 UNL A   1      13.749  46.742   2.186  1.00  0.00    +0.000 H 
ATOM    139  H40 UNL A   1      15.364  47.058   0.163  1.00  0.00    +0.000 H 
ATOM    140  H41 UNL A   1      15.151  50.641   2.228  1.00  0.00    +0.000 H 
ATOM    141  H42 UNL A   1      16.672  56.823   2.715  1.00  0.00    +0.000 H 
ATOM    142  H43 UNL A   1      15.106  56.503   4.690  1.00  0.00    +0.000 H 
ATOM    143  H44 UNL A   1      15.416  52.860   2.713  1.00  0.00    +0.000 H 
ATOM    144  H45 UNL A   1      18.578  53.616  -1.115  1.00  0.00    +0.000 H 
ATOM    145  H46 UNL A   1      18.090  51.205  -1.823  1.00  0.00    +0.000 H 
ATOM    146  H47 UNL A   1      12.218  49.928   6.225  1.00  0.00    +0.000 H 
ATOM    147  H48 UNL A   1      12.269  52.451   6.655  1.00  0.00    +0.000 H 
ATOM     41  C29 UNL A   1      14.030  53.873   4.919  1.00  0.00    +0.000 C 
ATOM     42  C30 UNL A   1      13.662  52.417   4.865  1.00  0.00    +0.000 C 
ATOM     43  N7  UNL A   1      14.056  51.495   4.024  1.00  0.00    +0.000 N 
ATOM     44  C31 UNL A   1      13.456  50.317   4.447  1.00  0.00    +0.000 C 
ATOM     45  C32 UNL A   1      13.500  49.092   3.869  1.00  0.00    +0.000 C 
ATOM     57  C39 UNL A   1      14.213  48.797   2.654  1.00  0.00    +0.000 C 
ATOM     58  C40 UNL A   1      14.257  47.608   1.948  1.00  0.00    +0.000 C 
ATOM     59  C41 UNL A   1      15.112  47.783   0.853  1.00  0.00    +0.000 C 
ATOM     60  C42 UNL A   1      15.563  49.094   0.853  1.00  0.00    +0.000 C 
ATOM     61  N8  UNL A   1      15.005  49.703   1.965  1.00  0.00    +0.000 N 
ATOM     62  C43 UNL A   1      16.436  49.742  -0.090  1.00  0.00    +0.000 C 
ATOM     74  C50 UNL A   1      16.823  51.039  -0.029  1.00  0.00    +0.000 C 
ATOM     75  N9  UNL A   1      16.489  52.008   0.907  1.00  0.00    +0.000 N 
ATOM     76  C51 UNL A   1      17.126  53.095   0.546  1.00  0.00    +0.000 C 
ATOM     77  C52 UNL A   1      17.112  54.458   1.180  1.00  0.00    +0.000 C 
ATOM     89  C59 UNL A   1      16.343  54.670   2.265  1.00  0.00    +0.000 C 
ATOM     90  C60 UNL A   1      16.204  55.940   2.972  1.00  0.00    +0.000 C 
ATOM     91  C61 UNL A   1      15.370  55.772   4.011  1.00  0.00    +0.000 C 
ATOM     92  C62 UNL A   1      14.894  54.388   4.025  1.00  0.00    +0.000 C 
ATOM     93  N10 UNL A   1      15.530  53.806   2.958  1.00  0.00    +0.000 N 
ATOM     94  C63 UNL A   1      17.959  52.931  -0.653  1.00  0.00    +0.000 C 
ATOM     95  C64 UNL A   1      17.706  51.674  -0.987  1.00  0.00    +0.000 C 
ATOM     96  C65 UNL A   1      12.714  50.626   5.648  1.00  0.00    +0.000 C 
ATOM     97  C66 UNL A   1      12.752  51.924   5.911  1.00  0.00    +0.000 C 
ENDROOT
BRANCH   41   40
ATOM     98  C67 UNL A   1      12.261  55.409   5.791  1.00  0.00    +0.000 C 
ATOM     99  C68 UNL A   1      11.763  56.263   6.770  1.00  0.00    +0.000 C 
ATOM     37  C25 UNL A   1      12.424  56.379   7.997  1.00  0.00    +0.000 C 
ATOM     38  C26 UNL A   1      13.640  55.724   8.204  1.00  0.00    +0.000 C 
ATOM     39  C27 UNL A   1      14.175  54.923   7.195  1.00  0.00    +0.000 C 
ATOM    136  H37 UNL A   1      14.141  55.833   9.100  1.00  0.00    +0.000 H 
ATOM     40  C28 UNL A   1      13.479  54.741   5.989  1.00  0.00    +0.000 C 
ATOM    137  H38 UNL A   1      15.087  54.461   7.336  1.00  0.00    +0.000 H 
ATOM    148  H49 UNL A   1      11.732  55.265   4.916  1.00  0.00    +0.000 H 
ATOM    149  H50 UNL A   1      10.907  56.812   6.590  1.00  0.00    +0.000 H 
BRANCH   37   35
ATOM     35  C24 UNL A   1      11.873  57.210   9.090  1.00  0.00    +0.000 C 
ATOM     36  O5  UNL A   1      11.603  58.384   8.887  1.00  0.00    +0.000 O 
BRANCH   35   34
ATOM     34  N6  UNL A   1      11.682  56.662  10.334  1.00  0.00    +0.000 N 
ATOM    135  H36 UNL A   1      12.246  57.034  11.050  1.00  0.00    +0.000 H 
BRANCH   34   33
ATOM     33  C23 UNL A   1      10.769  55.612  10.743  1.00  0.00    +0.000 C 
ATOM    133  H34 UNL A   1      10.179  55.968  11.562  1.00  0.00    +0.000 H 
ATOM    134  H35 UNL A   1      10.156  55.364   9.900  1.00  0.00    +0.000 H 
BRANCH   33   32
ATOM    131  H32 UNL A   1      11.033  53.986  12.069  1.00  0.00    +0.000 H 
ATOM    132  H33 UNL A   1      11.430  53.666  10.354  1.00  0.00    +0.000 H 
ATOM     32  C22 UNL A   1      11.499  54.348  11.176  1.00  0.00    +0.000 C 
BRANCH   32   31
ATOM    129  H30 UNL A   1      13.534  53.904  10.777  1.00  0.00    +0.000 H 
ATOM    130  H31 UNL A   1      13.191  55.571  11.339  1.00  0.00    +0.000 H 
ATOM     31  C21 UNL A   1      12.992  54.527  11.459  1.00  0.00    +0.000 C 
BRANCH   31   30
ATOM     30  C20 UNL A   1      13.441  54.173  12.879  1.00  0.00    +0.000 C 
ATOM    127  H28 UNL A   1      14.505  54.053  12.870  1.00  0.00    +0.000 H 
ATOM    128  H29 UNL A   1      13.105  54.975  13.503  1.00  0.00    +0.000 H 
BRANCH   30   29
ATOM    125  H26 UNL A   1      12.695  53.042  14.514  1.00  0.00    +0.000 H 
ATOM     29  C19 UNL A   1      12.827  52.899  13.462  1.00  0.00    +0.000 C 
ATOM    126  H27 UNL A   1      11.907  52.740  12.938  1.00  0.00    +0.000 H 
BRANCH   29   28
ATOM    124  H25 UNL A   1      13.746  51.142  14.201  1.00  0.00    +0.000 H 
ATOM    123  H24 UNL A   1      14.619  51.913  12.875  1.00  0.00    +0.000 H 
ATOM     28  C18 UNL A   1      13.658  51.637  13.257  1.00  0.00    +0.000 C 
BRANCH   28   27
ATOM    122  H23 UNL A   1      12.099  50.482  12.536  1.00  0.00    +0.000 H 
ATOM     27  N5  UNL A   1      13.031  50.722  12.327  1.00  0.00    +0.000 N 
BRANCH   27   25
ATOM     25  C17 UNL A   1      13.542  50.146  11.205  1.00  0.00    +0.000 C 
ATOM     26  O4  UNL A   1      14.600  50.608  10.765  1.00  0.00    +0.000 O 
BRANCH   25   22
ATOM    118  H19 UNL A   1      11.911  48.850  10.969  1.00  0.00    +0.000 H 
ATOM     22  C15 UNL A   1      12.833  49.013  10.452  1.00  0.00    +0.000 C 
BRANCH   22   21
ATOM    117  H18 UNL A   1      13.089  49.233   8.348  1.00  0.00    +0.000 H 
ATOM     21  N4  UNL A   1      12.451  49.377   9.084  1.00  0.00    +0.000 N 
BRANCH   21   19
ATOM     19  C14 UNL A   1      11.231  49.911   8.815  1.00  0.00    +0.000 C 
ATOM     20  O2  UNL A   1      11.132  51.136   8.915  1.00  0.00    +0.000 O 
BRANCH   19   16
ATOM    113  H14 UNL A   1       9.193  49.391   8.937  1.00  0.00    +0.000 H 
ATOM     16  C12 UNL A   1      10.040  49.023   8.397  1.00  0.00    +0.000 C 
BRANCH   16   15
ATOM     15  N3  UNL A   1       9.799  49.199   6.974  1.00  0.00    +0.000 N 
ATOM    112  H13 UNL A   1      10.459  48.833   6.343  1.00  0.00    +0.000 H 
BRANCH   15   13
ATOM     13  C11 UNL A   1       8.701  49.849   6.461  1.00  0.00    +0.000 C 
ATOM     14  O1  UNL A   1       8.224  50.755   7.149  1.00  0.00    +0.000 O 
BRANCH   13    2
ATOM      2  C1  UNL A   1       8.136  49.521   5.049  1.00  0.00    +0.000 C 
ATOM    103  H4  UNL A   1       8.222  48.461   4.930  1.00  0.00    +0.000 H 
BRANCH    2    1
ATOM      1  N1  UNL A   1       6.688  49.813   4.982  1.00  0.00    +0.000 N 
ATOM    100  H1  UNL A   1       6.504  50.438   4.196  1.00  0.00    +0.000 H 
ATOM    101  H2  UNL A   1       6.391  50.261   5.849  1.00  0.00    +0.000 H 
ATOM    102  H3  UNL A   1       6.172  48.943   4.853  1.00  0.00    +0.000 H 
ENDBRANCH    2    1
BRANCH    2    3
ATOM    105  H6  UNL A   1       9.926  49.416   4.032  1.00  0.00    +0.000 H 
ATOM      3  C2  UNL A   1       9.003  49.920   3.832  1.00  0.00    +0.000 C 
ATOM    104  H5  UNL A   1       8.448  49.644   2.961  1.00  0.00    +0.000 H 
BRANCH    3    4
ATOM      4  C3  UNL A   1       9.455  51.350   3.616  1.00  0.00    +0.000 C 
ATOM      5  C4  UNL A   1       8.981  52.526   4.174  1.00  0.00    +0.000 C 
ATOM      6  N2  UNL A   1       9.798  53.557   3.784  1.00  0.00    +0.000 N 
ATOM      7  C5  UNL A   1      10.706  53.115   2.857  1.00  0.00    +0.000 C 
ATOM      8  C6  UNL A   1      11.694  53.819   2.156  1.00  0.00    +0.000 C 
ATOM      9  C7  UNL A   1      12.426  53.121   1.192  1.00  0.00    +0.000 C 
ATOM    106  H7  UNL A   1       8.152  52.612   4.782  1.00  0.00    +0.000 H 
ATOM     11  C9  UNL A   1      11.235  51.070   1.706  1.00  0.00    +0.000 C 
ATOM     12  C10 UNL A   1      10.477  51.751   2.682  1.00  0.00    +0.000 C 
ATOM     10  C8  UNL A   1      12.189  51.769   0.956  1.00  0.00    +0.000 C 
ATOM    107  H8  UNL A   1       9.740  54.480   4.122  1.00  0.00    +0.000 H 
ATOM    111  H12 UNL A   1      11.089  50.062   1.546  1.00  0.00    +0.000 H 
ATOM    108  H9  UNL A   1      11.873  54.819   2.343  1.00  0.00    +0.000 H 
ATOM    110  H11 UNL A   1      12.722  51.278   0.222  1.00  0.00    +0.000 H 
ATOM    109  H10 UNL A   1      13.152  53.614   0.649  1.00  0.00    +0.000 H 
ENDBRANCH    3    4
ENDBRANCH    2    3
ENDBRANCH   13    2
ENDBRANCH   15   13
ENDBRANCH   16   15
BRANCH   16   17
ATOM     17  C13 UNL A   1       9.929  47.599   8.961  1.00  0.00    +0.000 C 
ATOM    114  H15 UNL A   1      10.906  47.167   8.932  1.00  0.00    +0.000 H 
ATOM    115  H16 UNL A   1       9.195  47.122   8.346  1.00  0.00    +0.000 H 
BRANCH   17   18
ATOM     18  S1  UNL A   1       9.299  47.406  10.662  1.00  0.00    +0.000 S 
ATOM    116  H17 UNL A   1       8.125  46.722  10.636  1.00  0.00    +0.000 H 
ENDBRANCH   17   18
ENDBRANCH   16   17
ENDBRANCH   19   16
ENDBRANCH   21   19
ENDBRANCH   22   21
BRANCH   22   23
ATOM    119  H20 UNL A   1      14.442  47.813  11.184  1.00  0.00    +0.000 H 
ATOM     23  C16 UNL A   1      13.613  47.690  10.519  1.00  0.00    +0.000 C 
ATOM    120  H21 UNL A   1      13.938  47.451   9.528  1.00  0.00    +0.000 H 
BRANCH   23   24
ATOM    121  H22 UNL A   1      11.891  46.741  10.700  1.00  0.00    +0.000 H 
ATOM     24  O3  UNL A   1      12.807  46.608  10.986  1.00  0.00    +0.000 O 
ENDBRANCH   23   24
ENDBRANCH   22   23
ENDBRANCH   25   22
ENDBRANCH   27   25
ENDBRANCH   28   27
ENDBRANCH   29   28
ENDBRANCH   30   29
ENDBRANCH   31   30
ENDBRANCH   32   31
ENDBRANCH   33   32
ENDBRANCH   34   33
ENDBRANCH   35   34
ENDBRANCH   37   35
ENDBRANCH   41   40
BRANCH   45   46
ATOM     46  C33 UNL A   1      12.751  47.979   4.542  1.00  0.00    +0.000 C 
ATOM     47  C34 UNL A   1      13.170  47.451   5.774  1.00  0.00    +0.000 C 
ATOM     48  F1  UNL A   1      14.288  47.905   6.358  1.00  0.00    +0.000 F 
ATOM     49  C35 UNL A   1      12.458  46.425   6.392  1.00  0.00    +0.000 C 
ATOM     50  F2  UNL A   1      12.903  45.905   7.544  1.00  0.00    +0.000 F 
ATOM     51  C36 UNL A   1      11.300  45.933   5.811  1.00  0.00    +0.000 C 
ATOM     52  F3  UNL A   1      10.614  44.950   6.410  1.00  0.00    +0.000 F 
ATOM     53  C37 UNL A   1      10.858  46.453   4.605  1.00  0.00    +0.000 C 
ATOM     54  F4  UNL A   1       9.732  45.986   4.047  1.00  0.00    +0.000 F 
ATOM     55  C38 UNL A   1      11.582  47.460   3.969  1.00  0.00    +0.000 C 
ATOM     56  F5  UNL A   1      11.136  47.931   2.795  1.00  0.00    +0.000 F 
ENDBRANCH   45   46
BRANCH   62   63
ATOM     65  F6  UNL A   1      15.141  49.590  -2.641  1.00  0.00    +0.000 F 
ATOM     66  C46 UNL A   1      16.779  48.161  -3.542  1.00  0.00    +0.000 C 
ATOM     67  F7  UNL A   1      16.106  48.121  -4.700  1.00  0.00    +0.000 F 
ATOM     68  C47 UNL A   1      17.957  47.443  -3.401  1.00  0.00    +0.000 C 
ATOM     69  F8  UNL A   1      18.434  46.726  -4.428  1.00  0.00    +0.000 F 
ATOM     70  C48 UNL A   1      18.639  47.462  -2.194  1.00  0.00    +0.000 C 
ATOM     71  F9  UNL A   1      19.784  46.780  -2.060  1.00  0.00    +0.000 F 
ATOM     72  C49 UNL A   1      18.133  48.187  -1.119  1.00  0.00    +0.000 C 
ATOM     73  F10 UNL A   1      18.806  48.177   0.041  1.00  0.00    +0.000 F 
ATOM     63  C44 UNL A   1      16.948  48.928  -1.242  1.00  0.00    +0.000 C 
ATOM     64  C45 UNL A   1      16.286  48.911  -2.479  1.00  0.00    +0.000 C 
ENDBRANCH   62   63
BRANCH   77   78
ATOM     78  C53 UNL A   1      17.907  55.575   0.607  1.00  0.00    +0.000 C 
ATOM     79  C54 UNL A   1      19.165  55.906   1.131  1.00  0.00    +0.000 C 
ATOM     80  F11 UNL A   1      19.654  55.222   2.175  1.00  0.00    +0.000 F 
ATOM     81  C55 UNL A   1      19.905  56.965   0.611  1.00  0.00    +0.000 C 
ATOM     82  F12 UNL A   1      21.084  57.288   1.159  1.00  0.00    +0.000 F 
ATOM     83  C56 UNL A   1      19.416  57.695  -0.462  1.00  0.00    +0.000 C 
ATOM     84  F13 UNL A   1      20.130  58.712  -0.963  1.00  0.00    +0.000 F 
ATOM     85  C57 UNL A   1      18.183  57.374  -1.008  1.00  0.00    +0.000 C 
ATOM     86  F14 UNL A   1      17.712  58.069  -2.054  1.00  0.00    +0.000 F 
ATOM     87  C58 UNL A   1      17.429  56.332  -0.472  1.00  0.00    +0.000 C 
ATOM     88  F15 UNL A   1      16.235  56.051  -1.014  1.00  0.00    +0.000 F 
ENDBRANCH   77   78
TORSDOF 28
ENDMDL
MODEL 3
REMARK VINA RESULT:      -7.6     47.458     53.362
ROOT
ATOM    138  H39 UNL A   1      20.662  52.962  -5.853  1.00  0.00    +0.000 H 
ATOM    139  H40 UNL A   1      22.861  54.322  -6.198  1.00  0.00    +0.000 H 
ATOM    140  H41 UNL A   1      20.782  55.991  -3.029  1.00  0.00    +0.000 H 
ATOM    141  H42 UNL A   1      20.187  60.586   1.365  1.00  0.00    +0.000 H 
ATOM    142  H43 UNL A   1      18.053  59.248   1.701  1.00  0.00    +0.000 H 
ATOM    143  H44 UNL A   1      20.191  57.473  -1.391  1.00  0.00    +0.000 H 
ATOM    144  H45 UNL A   1      24.398  60.167  -1.903  1.00  0.00    +0.000 H 
ATOM    145  H46 UNL A   1      24.952  58.676  -3.909  1.00  0.00    +0.000 H 
ATOM    146  H47 UNL A   1      16.683  53.219  -2.261  1.00  0.00    +0.000 H 
ATOM    147  H48 UNL A   1      15.851  54.990  -0.610  1.00  0.00    +0.000 H 
ATOM     41  C29 UNL A   1      17.745  57.060  -0.100  1.00  0.00    +0.000 C 
ATOM     42  C30 UNL A   1      17.850  55.942  -1.099  1.00  0.00    +0.000 C 
ATOM     43  N7  UNL A   1      18.813  55.677  -1.946  1.00  0.00    +0.000 N 
ATOM     44  C31 UNL A   1      18.430  54.514  -2.600  1.00  0.00    +0.000 C 
ATOM     45  C32 UNL A   1      19.059  53.869  -3.612  1.00  0.00    +0.000 C 
ATOM     57  C39 UNL A   1      20.291  54.310  -4.210  1.00  0.00    +0.000 C 
ATOM     58  C40 UNL A   1      20.968  53.770  -5.289  1.00  0.00    +0.000 C 
ATOM     59  C41 UNL A   1      22.141  54.510  -5.484  1.00  0.00    +0.000 C 
ATOM     60  C42 UNL A   1      22.169  55.539  -4.554  1.00  0.00    +0.000 C 
ATOM     61  N8  UNL A   1      21.030  55.401  -3.778  1.00  0.00    +0.000 N 
ATOM     62  C43 UNL A   1      23.162  56.568  -4.386  1.00  0.00    +0.000 C 
ATOM     74  C50 UNL A   1      23.112  57.553  -3.457  1.00  0.00    +0.000 C 
ATOM     75  N9  UNL A   1      22.145  57.797  -2.492  1.00  0.00    +0.000 N 
ATOM     76  C51 UNL A   1      22.556  58.847  -1.825  1.00  0.00    +0.000 C 
ATOM     77  C52 UNL A   1      21.890  59.569  -0.686  1.00  0.00    +0.000 C 
ATOM     89  C59 UNL A   1      20.691  59.141  -0.249  1.00  0.00    +0.000 C 
ATOM     90  C60 UNL A   1      19.912  59.750   0.825  1.00  0.00    +0.000 C 
ATOM     91  C61 UNL A   1      18.780  59.048   0.996  1.00  0.00    +0.000 C 
ATOM     92  C62 UNL A   1      18.743  57.955   0.024  1.00  0.00    +0.000 C 
ATOM     93  N10 UNL A   1      19.922  58.082  -0.666  1.00  0.00    +0.000 N 
ATOM     94  C63 UNL A   1      23.848  59.378  -2.280  1.00  0.00    +0.000 C 
ATOM     95  C64 UNL A   1      24.123  58.580  -3.302  1.00  0.00    +0.000 C 
ATOM     96  C65 UNL A   1      17.175  54.094  -2.019  1.00  0.00    +0.000 C 
ATOM     97  C66 UNL A   1      16.738  54.979  -1.135  1.00  0.00    +0.000 C 
ENDROOT
BRANCH   41   40
ATOM     98  C67 UNL A   1      15.441  57.898   0.384  1.00  0.00    +0.000 C 
ATOM     99  C68 UNL A   1      14.347  58.034   1.234  1.00  0.00    +0.000 C 
ATOM     37  C25 UNL A   1      14.317  57.344   2.450  1.00  0.00    +0.000 C 
ATOM     38  C26 UNL A   1      15.428  56.606   2.865  1.00  0.00    +0.000 C 
ATOM     39  C27 UNL A   1      16.554  56.528   2.045  1.00  0.00    +0.000 C 
ATOM    136  H37 UNL A   1      15.416  56.121   3.776  1.00  0.00    +0.000 H 
ATOM     40  C28 UNL A   1      16.561  57.156   0.789  1.00  0.00    +0.000 C 
ATOM    137  H38 UNL A   1      17.386  56.007   2.363  1.00  0.00    +0.000 H 
ATOM    148  H49 UNL A   1      15.429  58.346  -0.546  1.00  0.00    +0.000 H 
ATOM    149  H50 UNL A   1      13.557  58.644   0.966  1.00  0.00    +0.000 H 
BRANCH   37   35
ATOM     35  C24 UNL A   1      13.132  57.396   3.334  1.00  0.00    +0.000 C 
ATOM     36  O5  UNL A   1      12.164  58.070   3.017  1.00  0.00    +0.000 O 
BRANCH   35   34
ATOM     34  N6  UNL A   1      13.132  56.698   4.515  1.00  0.00    +0.000 N 
ATOM    135  H36 UNL A   1      13.060  55.720   4.427  1.00  0.00    +0.000 H 
BRANCH   34   33
ATOM     33  C23 UNL A   1      13.224  57.195   5.875  1.00  0.00    +0.000 C 
ATOM    133  H34 UNL A   1      14.106  57.794   5.964  1.00  0.00    +0.000 H 
ATOM    134  H35 UNL A   1      12.342  57.768   6.075  1.00  0.00    +0.000 H 
BRANCH   33   32
ATOM    131  H32 UNL A   1      12.541  56.250   7.640  1.00  0.00    +0.000 H 
ATOM    132  H33 UNL A   1      13.137  55.160   6.353  1.00  0.00    +0.000 H 
ATOM     32  C22 UNL A   1      13.290  56.069   6.898  1.00  0.00    +0.000 C 
BRANCH   32   31
ATOM    129  H30 UNL A   1      15.375  55.685   6.872  1.00  0.00    +0.000 H 
ATOM    130  H31 UNL A   1      14.808  56.846   8.113  1.00  0.00    +0.000 H 
ATOM     31  C21 UNL A   1      14.636  55.918   7.610  1.00  0.00    +0.000 C 
BRANCH   31   30
ATOM     30  C20 UNL A   1      14.691  54.837   8.692  1.00  0.00    +0.000 C 
ATOM    127  H28 UNL A   1      15.637  54.913   9.189  1.00  0.00    +0.000 H 
ATOM    128  H29 UNL A   1      13.854  55.018   9.333  1.00  0.00    +0.000 H 
BRANCH   30   29
ATOM    125  H26 UNL A   1      13.526  53.266   7.864  1.00  0.00    +0.000 H 
ATOM     29  C19 UNL A   1      14.537  53.400   8.191  1.00  0.00    +0.000 C 
ATOM    126  H27 UNL A   1      15.254  53.275   7.406  1.00  0.00    +0.000 H 
BRANCH   29   28
ATOM    124  H25 UNL A   1      14.023  52.278   9.910  1.00  0.00    +0.000 H 
ATOM    123  H24 UNL A   1      15.753  52.579   9.731  1.00  0.00    +0.000 H 
ATOM     28  C18 UNL A   1      14.845  52.324   9.226  1.00  0.00    +0.000 C 
BRANCH   28   27
ATOM    122  H23 UNL A   1      14.230  50.411   8.727  1.00  0.00    +0.000 H 
ATOM     27  N5  UNL A   1      14.998  51.018   8.619  1.00  0.00    +0.000 N 
BRANCH   27   25
ATOM     25  C17 UNL A   1      16.050  50.508   7.922  1.00  0.00    +0.000 C 
ATOM     26  O4  UNL A   1      17.138  51.081   8.043  1.00  0.00    +0.000 O 
BRANCH   25   22
ATOM    118  H19 UNL A   1      14.988  49.455   6.453  1.00  0.00    +0.000 H 
ATOM     22  C15 UNL A   1      15.916  49.316   6.965  1.00  0.00    +0.000 C 
BRANCH   22   21
ATOM    117  H18 UNL A   1      17.885  49.423   6.159  1.00  0.00    +0.000 H 
ATOM     21  N4  UNL A   1      16.939  49.299   5.915  1.00  0.00    +0.000 N 
BRANCH   21   19
ATOM     19  C14 UNL A   1      16.603  49.115   4.612  1.00  0.00    +0.000 C 
ATOM     20  O2  UNL A   1      16.725  47.970   4.168  1.00  0.00    +0.000 O 
BRANCH   19   16
ATOM    113  H14 UNL A   1      16.708  50.300   2.874  1.00  0.00    +0.000 H 
ATOM     16  C12 UNL A   1      16.086  50.281   3.744  1.00  0.00    +0.000 C 
BRANCH   16   15
ATOM     15  N3  UNL A   1      14.720  49.993   3.335  1.00  0.00    +0.000 N 
ATOM    112  H13 UNL A   1      14.005  50.104   4.001  1.00  0.00    +0.000 H 
BRANCH   15   13
ATOM     13  C11 UNL A   1      14.374  49.577   2.072  1.00  0.00    +0.000 C 
ATOM     14  O1  UNL A   1      14.105  48.380   1.938  1.00  0.00    +0.000 O 
BRANCH   13    2
ATOM      2  C1  UNL A   1      14.244  50.573   0.884  1.00  0.00    +0.000 C 
ATOM    103  H4  UNL A   1      13.706  50.056   0.117  1.00  0.00    +0.000 H 
BRANCH    2    1
ATOM      1  N1  UNL A   1      13.397  51.727   1.255  1.00  0.00    +0.000 N 
ATOM    100  H1  UNL A   1      13.235  51.718   2.262  1.00  0.00    +0.000 H 
ATOM    101  H2  UNL A   1      12.503  51.664   0.766  1.00  0.00    +0.000 H 
ATOM    102  H3  UNL A   1      13.868  52.592   0.993  1.00  0.00    +0.000 H 
ENDBRANCH    2    1
BRANCH    2    3
ATOM    105  H6  UNL A   1      15.139  50.937  -0.937  1.00  0.00    +0.000 H 
ATOM      3  C2  UNL A   1      15.521  50.860   0.059  1.00  0.00    +0.000 C 
ATOM    104  H5  UNL A   1      15.979  51.719   0.500  1.00  0.00    +0.000 H 
BRANCH    3    4
ATOM      4  C3  UNL A   1      16.615  49.822  -0.092  1.00  0.00    +0.000 C 
ATOM      5  C4  UNL A   1      17.848  49.733   0.531  1.00  0.00    +0.000 C 
ATOM      6  N2  UNL A   1      18.432  48.542   0.181  1.00  0.00    +0.000 N 
ATOM      7  C5  UNL A   1      17.683  47.914  -0.781  1.00  0.00    +0.000 C 
ATOM      8  C6  UNL A   1      17.915  46.711  -1.461  1.00  0.00    +0.000 C 
ATOM      9  C7  UNL A   1      17.016  46.355  -2.469  1.00  0.00    +0.000 C 
ATOM    106  H7  UNL A   1      18.260  50.444   1.155  1.00  0.00    +0.000 H 
ATOM     11  C9  UNL A   1      15.677  48.331  -2.040  1.00  0.00    +0.000 C 
ATOM     12  C10 UNL A   1      16.571  48.720  -1.020  1.00  0.00    +0.000 C 
ATOM     10  C8  UNL A   1      15.921  47.161  -2.769  1.00  0.00    +0.000 C 
ATOM    107  H8  UNL A   1      19.268  48.190   0.565  1.00  0.00    +0.000 H 
ATOM    111  H12 UNL A   1      14.846  48.906  -2.248  1.00  0.00    +0.000 H 
ATOM    108  H9  UNL A   1      18.722  46.111  -1.227  1.00  0.00    +0.000 H 
ATOM    110  H11 UNL A   1      15.284  46.893  -3.534  1.00  0.00    +0.000 H 
ATOM    109  H10 UNL A   1      17.165  45.481  -2.998  1.00  0.00    +0.000 H 
ENDBRANCH    3    4
ENDBRANCH    2    3
ENDBRANCH   13    2
ENDBRANCH   15   13
ENDBRANCH   16   15
BRANCH   16   17
ATOM     17  C13 UNL A   1      16.412  51.725   4.152  1.00  0.00    +0.000 C 
ATOM    114  H15 UNL A   1      17.161  51.680   4.915  1.00  0.00    +0.000 H 
ATOM    115  H16 UNL A   1      15.473  52.140   4.452  1.00  0.00    +0.000 H 
BRANCH   17   18
ATOM     18  S1  UNL A   1      17.022  52.856   2.858  1.00  0.00    +0.000 S 
ATOM    116  H17 UNL A   1      18.364  53.022   2.996  1.00  0.00    +0.000 H 
ENDBRANCH   17   18
ENDBRANCH   16   17
ENDBRANCH   19   16
ENDBRANCH   21   19
ENDBRANCH   22   21
BRANCH   22   23
ATOM    119  H20 UNL A   1      15.392  48.158   8.682  1.00  0.00    +0.000 H 
ATOM     23  C16 UNL A   1      15.808  47.978   7.714  1.00  0.00    +0.000 C 
ATOM    120  H21 UNL A   1      16.792  47.561   7.782  1.00  0.00    +0.000 H 
BRANCH   23   24
ATOM    121  H22 UNL A   1      14.206  47.491   6.667  1.00  0.00    +0.000 H 
ATOM     24  O3  UNL A   1      14.983  47.037   7.027  1.00  0.00    +0.000 O 
ENDBRANCH   23   24
ENDBRANCH   22   23
ENDBRANCH   25   22
ENDBRANCH   27   25
ENDBRANCH   28   27
ENDBRANCH   29   28
ENDBRANCH   30   29
ENDBRANCH   31   30
ENDBRANCH   32   31
ENDBRANCH   33   32
ENDBRANCH   34   33
ENDBRANCH   35   34
ENDBRANCH   37   35
ENDBRANCH   41   40
BRANCH   45   46
ATOM     46  C33 UNL A   1      18.420  52.618  -4.142  1.00  0.00    +0.000 C 
ATOM     47  C34 UNL A   1      17.471  52.659  -5.175  1.00  0.00    +0.000 C 
ATOM     48  F1  UNL A   1      17.076  53.836  -5.684  1.00  0.00    +0.000 F 
ATOM     49  C35 UNL A   1      16.893  51.490  -5.664  1.00  0.00    +0.000 C 
ATOM     50  F2  UNL A   1      15.954  51.558  -6.618  1.00  0.00    +0.000 F 
ATOM     51  C36 UNL A   1      17.278  50.258  -5.157  1.00  0.00    +0.000 C 
ATOM     52  F3  UNL A   1      16.726  49.134  -5.632  1.00  0.00    +0.000 F 
ATOM     53  C37 UNL A   1      18.228  50.193  -4.150  1.00  0.00    +0.000 C 
ATOM     54  F4  UNL A   1      18.610  49.003  -3.665  1.00  0.00    +0.000 F 
ATOM     55  C38 UNL A   1      18.787  51.362  -3.639  1.00  0.00    +0.000 C 
ATOM     56  F5  UNL A   1      19.693  51.267  -2.653  1.00  0.00    +0.000 F 
ENDBRANCH   45   46
BRANCH   62   63
ATOM     65  F6  UNL A   1      23.163  57.846  -6.951  1.00  0.00    +0.000 F 
ATOM     66  C46 UNL A   1      25.389  57.232  -7.408  1.00  0.00    +0.000 C 
ATOM     67  F7  UNL A   1      25.309  57.833  -8.603  1.00  0.00    +0.000 F 
ATOM     68  C47 UNL A   1      26.564  56.599  -7.029  1.00  0.00    +0.000 C 
ATOM     69  F8  UNL A   1      27.625  56.606  -7.849  1.00  0.00    +0.000 F 
ATOM     70  C48 UNL A   1      26.638  55.953  -5.805  1.00  0.00    +0.000 C 
ATOM     71  F9  UNL A   1      27.775  55.352  -5.432  1.00  0.00    +0.000 F 
ATOM     72  C49 UNL A   1      25.530  55.925  -4.963  1.00  0.00    +0.000 C 
ATOM     73  F10 UNL A   1      25.625  55.282  -3.790  1.00  0.00    +0.000 F 
ATOM     63  C44 UNL A   1      24.334  56.567  -5.322  1.00  0.00    +0.000 C 
ATOM     64  C45 UNL A   1      24.289  57.232  -6.556  1.00  0.00    +0.000 C 
ENDBRANCH   62   63
BRANCH   77   78
ATOM     78  C53 UNL A   1      22.523  60.760  -0.064  1.00  0.00    +0.000 C 
ATOM     79  C54 UNL A   1      22.260  62.050  -0.547  1.00  0.00    +0.000 C 
ATOM     80  F11 UNL A   1      21.443  62.216  -1.597  1.00  0.00    +0.000 F 
ATOM     81  C55 UNL A   1      22.867  63.169   0.019  1.00  0.00    +0.000 C 
ATOM     82  F12 UNL A   1      22.633  64.386  -0.490  1.00  0.00    +0.000 F 
ATOM     83  C56 UNL A   1      23.726  63.022   1.099  1.00  0.00    +0.000 C 
ATOM     84  F13 UNL A   1      24.307  64.099   1.645  1.00  0.00    +0.000 F 
ATOM     85  C57 UNL A   1      23.986  61.759   1.605  1.00  0.00    +0.000 C 
ATOM     86  F14 UNL A   1      24.805  61.614   2.658  1.00  0.00    +0.000 F 
ATOM     87  C58 UNL A   1      23.400  60.636   1.023  1.00  0.00    +0.000 C 
ATOM     88  F15 UNL A   1      23.679  59.425   1.527  1.00  0.00    +0.000 F 
ENDBRANCH   77   78
TORSDOF 28
ENDMDL
MODEL 4
REMARK VINA RESULT:      -7.6     33.306     38.782
ROOT
ATOM    138  H39 UNL A   1      12.025  10.908  16.277  1.00  0.00    +0.000 H 
ATOM    139  H40 UNL A   1      12.054  13.152  14.947  1.00  0.00    +0.000 H 
ATOM    140  H41 UNL A   1      11.537  14.027  18.961  1.00  0.00    +0.000 H 
ATOM    141  H42 UNL A   1      10.455  18.305  23.576  1.00  0.00    +0.000 H 
ATOM    142  H43 UNL A   1      10.440  16.115  24.866  1.00  0.00    +0.000 H 
ATOM    143  H44 UNL A   1      11.100  15.225  20.860  1.00  0.00    +0.000 H 
ATOM    144  H45 UNL A   1      11.171  19.628  18.446  1.00  0.00    +0.000 H 
ATOM    145  H46 UNL A   1      11.401  18.287  16.277  1.00  0.00    +0.000 H 
ATOM    146  H47 UNL A   1      11.710   9.713  21.499  1.00  0.00    +0.000 H 
ATOM    147  H48 UNL A   1      10.960  10.972  23.599  1.00  0.00    +0.000 H 
ATOM     41  C29 UNL A   1      10.805  13.798  23.246  1.00  0.00    +0.000 C 
ATOM     42  C30 UNL A   1      11.085  12.754  22.201  1.00  0.00    +0.000 C 
ATOM     43  N7  UNL A   1      11.311  12.904  20.921  1.00  0.00    +0.000 N 
ATOM     44  C31 UNL A   1      11.553  11.629  20.428  1.00  0.00    +0.000 C 
ATOM     45  C32 UNL A   1      11.776  11.248  19.147  1.00  0.00    +0.000 C 
ATOM     57  C39 UNL A   1      11.794  12.150  18.027  1.00  0.00    +0.000 C 
ATOM     58  C40 UNL A   1      11.935  11.853  16.682  1.00  0.00    +0.000 C 
ATOM     59  C41 UNL A   1      11.935  13.056  15.967  1.00  0.00    +0.000 C 
ATOM     60  C42 UNL A   1      11.748  14.099  16.862  1.00  0.00    +0.000 C 
ATOM     61  N8  UNL A   1      11.666  13.528  18.122  1.00  0.00    +0.000 N 
ATOM     62  C43 UNL A   1      11.651  15.509  16.589  1.00  0.00    +0.000 C 
ATOM     74  C50 UNL A   1      11.453  16.471  17.523  1.00  0.00    +0.000 C 
ATOM     75  N9  UNL A   1      11.303  16.339  18.896  1.00  0.00    +0.000 N 
ATOM     76  C51 UNL A   1      11.157  17.555  19.362  1.00  0.00    +0.000 C 
ATOM     77  C52 UNL A   1      10.931  18.008  20.779  1.00  0.00    +0.000 C 
ATOM     89  C59 UNL A   1      10.836  17.086  21.755  1.00  0.00    +0.000 C 
ATOM     90  C60 UNL A   1      10.593  17.367  23.167  1.00  0.00    +0.000 C 
ATOM     91  C61 UNL A   1      10.576  16.209  23.847  1.00  0.00    +0.000 C 
ATOM     92  C62 UNL A   1      10.780  15.102  22.912  1.00  0.00    +0.000 C 
ATOM     93  N10 UNL A   1      10.934  15.717  21.695  1.00  0.00    +0.000 N 
ATOM     94  C63 UNL A   1      11.222  18.603  18.335  1.00  0.00    +0.000 C 
ATOM     95  C64 UNL A   1      11.361  17.887  17.228  1.00  0.00    +0.000 C 
ATOM     96  C65 UNL A   1      11.500  10.723  21.553  1.00  0.00    +0.000 C 
ATOM     97  C66 UNL A   1      11.145  11.357  22.661  1.00  0.00    +0.000 C 
ENDROOT
BRANCH   41   40
ATOM     98  C67 UNL A   1       9.321  13.053  25.113  1.00  0.00    +0.000 C 
ATOM     99  C68 UNL A   1       9.115  12.727  26.451  1.00  0.00    +0.000 C 
ATOM     37  C25 UNL A   1      10.203  12.645  27.325  1.00  0.00    +0.000 C 
ATOM     38  C26 UNL A   1      11.483  12.994  26.887  1.00  0.00    +0.000 C 
ATOM     39  C27 UNL A   1      11.678  13.389  25.563  1.00  0.00    +0.000 C 
ATOM    136  H37 UNL A   1      12.281  12.960  27.541  1.00  0.00    +0.000 H 
ATOM     40  C28 UNL A   1      10.603  13.401  24.661  1.00  0.00    +0.000 C 
ATOM    137  H38 UNL A   1      12.618  13.674  25.246  1.00  0.00    +0.000 H 
ATOM    148  H49 UNL A   1       8.529  13.039  24.452  1.00  0.00    +0.000 H 
ATOM    149  H50 UNL A   1       8.159  12.548  26.797  1.00  0.00    +0.000 H 
BRANCH   37   35
ATOM     35  C24 UNL A   1      10.029  12.215  28.730  1.00  0.00    +0.000 C 
ATOM     36  O5  UNL A   1      10.997  11.857  29.383  1.00  0.00    +0.000 O 
BRANCH   35   34
ATOM     34  N6  UNL A   1       8.776  12.208  29.290  1.00  0.00    +0.000 N 
ATOM    135  H36 UNL A   1       8.406  13.094  29.507  1.00  0.00    +0.000 H 
BRANCH   34   33
ATOM     33  C23 UNL A   1       7.920  11.081  29.607  1.00  0.00    +0.000 C 
ATOM    133  H34 UNL A   1       7.950  10.912  30.664  1.00  0.00    +0.000 H 
ATOM    134  H35 UNL A   1       6.930  11.319  29.278  1.00  0.00    +0.000 H 
BRANCH   33   32
ATOM    131  H32 UNL A   1       9.336   9.968  28.497  1.00  0.00    +0.000 H 
ATOM    132  H33 UNL A   1       8.316   9.027  29.626  1.00  0.00    +0.000 H 
ATOM     32  C22 UNL A   1       8.355   9.807  28.895  1.00  0.00    +0.000 C 
BRANCH   32   31
ATOM    129  H30 UNL A   1       7.249  10.217  27.133  1.00  0.00    +0.000 H 
ATOM    130  H31 UNL A   1       7.971   8.580  27.242  1.00  0.00    +0.000 H 
ATOM     31  C21 UNL A   1       7.445   9.363  27.748  1.00  0.00    +0.000 C 
BRANCH   31   30
ATOM     30  C20 UNL A   1       6.101   8.763  28.168  1.00  0.00    +0.000 C 
ATOM    127  H28 UNL A   1       6.285   8.045  28.941  1.00  0.00    +0.000 H 
ATOM    128  H29 UNL A   1       5.496   9.587  28.483  1.00  0.00    +0.000 H 
BRANCH   30   29
ATOM    125  H26 UNL A   1       4.292   8.360  27.131  1.00  0.00    +0.000 H 
ATOM     29  C19 UNL A   1       5.318   8.066  27.053  1.00  0.00    +0.000 C 
ATOM    126  H27 UNL A   1       5.775   8.363  26.133  1.00  0.00    +0.000 H 
BRANCH   29   28
ATOM    124  H25 UNL A   1       5.013   6.219  28.040  1.00  0.00    +0.000 H 
ATOM    123  H24 UNL A   1       6.389   6.231  26.935  1.00  0.00    +0.000 H 
ATOM     28  C18 UNL A   1       5.377   6.543  27.088  1.00  0.00    +0.000 C 
BRANCH   28   27
ATOM    122  H23 UNL A   1       3.659   6.363  25.946  1.00  0.00    +0.000 H 
ATOM     27  N5  UNL A   1       4.544   5.947  26.063  1.00  0.00    +0.000 N 
BRANCH   27   25
ATOM     25  C17 UNL A   1       4.808   4.897  25.239  1.00  0.00    +0.000 C 
ATOM     26  O4  UNL A   1       4.670   3.763  25.709  1.00  0.00    +0.000 O 
BRANCH   25   22
ATOM    118  H19 UNL A   1       5.291   4.099  23.361  1.00  0.00    +0.000 H 
ATOM     22  C15 UNL A   1       5.319   5.072  23.803  1.00  0.00    +0.000 C 
BRANCH   22   21
ATOM    117  H18 UNL A   1       3.568   5.545  22.687  1.00  0.00    +0.000 H 
ATOM     21  N4  UNL A   1       4.441   5.901  22.972  1.00  0.00    +0.000 N 
BRANCH   21   19
ATOM     19  C14 UNL A   1       4.813   7.149  22.586  1.00  0.00    +0.000 C 
ATOM     20  O2  UNL A   1       5.309   7.253  21.462  1.00  0.00    +0.000 O 
BRANCH   19   16
ATOM    113  H14 UNL A   1       4.406   7.972  24.482  1.00  0.00    +0.000 H 
ATOM     16  C12 UNL A   1       4.611   8.368  23.510  1.00  0.00    +0.000 C 
BRANCH   16   15
ATOM     15  N3  UNL A   1       5.850   9.126  23.567  1.00  0.00    +0.000 N 
ATOM    112  H13 UNL A   1       6.633   8.705  23.988  1.00  0.00    +0.000 H 
BRANCH   15   13
ATOM     13  C11 UNL A   1       5.989  10.398  23.063  1.00  0.00    +0.000 C 
ATOM     14  O1  UNL A   1       5.999  11.320  23.884  1.00  0.00    +0.000 O 
BRANCH   13    2
ATOM      2  C1  UNL A   1       6.209  10.664  21.546  1.00  0.00    +0.000 C 
ATOM    103  H4  UNL A   1       6.235   9.704  21.075  1.00  0.00    +0.000 H 
BRANCH    2    1
ATOM      1  N1  UNL A   1       5.046  11.364  20.961  1.00  0.00    +0.000 N 
ATOM    100  H1  UNL A   1       4.563  11.888  21.691  1.00  0.00    +0.000 H 
ATOM    101  H2  UNL A   1       4.407  10.681  20.554  1.00  0.00    +0.000 H 
ATOM    102  H3  UNL A   1       5.366  12.006  20.236  1.00  0.00    +0.000 H 
ENDBRANCH    2    1
BRANCH    2    3
ATOM    105  H6  UNL A   1       8.107  11.294  22.046  1.00  0.00    +0.000 H 
ATOM      3  C2  UNL A   1       7.619  11.128  21.108  1.00  0.00    +0.000 C 
ATOM    104  H5  UNL A   1       7.999  10.369  20.459  1.00  0.00    +0.000 H 
BRANCH    3    4
ATOM      4  C3  UNL A   1       7.830  12.447  20.394  1.00  0.00    +0.000 C 
ATOM      5  C4  UNL A   1       8.301  12.701  19.116  1.00  0.00    +0.000 C 
ATOM      6  N2  UNL A   1       8.182  14.044  18.864  1.00  0.00    +0.000 N 
ATOM      7  C5  UNL A   1       7.791  14.706  19.999  1.00  0.00    +0.000 C 
ATOM      8  C6  UNL A   1       7.590  16.075  20.222  1.00  0.00    +0.000 C 
ATOM      9  C7  UNL A   1       7.275  16.480  21.521  1.00  0.00    +0.000 C 
ATOM    106  H7  UNL A   1       8.678  11.997  18.463  1.00  0.00    +0.000 H 
ATOM     11  C9  UNL A   1       7.299  14.180  22.295  1.00  0.00    +0.000 C 
ATOM     12  C10 UNL A   1       7.624  13.742  20.993  1.00  0.00    +0.000 C 
ATOM     10  C8  UNL A   1       7.149  15.549  22.549  1.00  0.00    +0.000 C 
ATOM    107  H8  UNL A   1       8.353  14.471  17.993  1.00  0.00    +0.000 H 
ATOM    111  H12 UNL A   1       7.173  13.496  23.056  1.00  0.00    +0.000 H 
ATOM    108  H9  UNL A   1       7.674  16.759  19.453  1.00  0.00    +0.000 H 
ATOM    110  H11 UNL A   1       6.942  15.871  23.507  1.00  0.00    +0.000 H 
ATOM    109  H10 UNL A   1       7.134  17.482  21.721  1.00  0.00    +0.000 H 
ENDBRANCH    3    4
ENDBRANCH    2    3
ENDBRANCH   13    2
ENDBRANCH   15   13
ENDBRANCH   16   15
BRANCH   16   17
ATOM     17  C13 UNL A   1       3.299   9.164  23.431  1.00  0.00    +0.000 C 
ATOM    114  H15 UNL A   1       3.547  10.199  23.533  1.00  0.00    +0.000 H 
ATOM    115  H16 UNL A   1       2.689   8.757  24.209  1.00  0.00    +0.000 H 
BRANCH   17   18
ATOM     18  S1  UNL A   1       2.293   8.992  21.920  1.00  0.00    +0.000 S 
ATOM    116  H17 UNL A   1       0.984   8.848  22.261  1.00  0.00    +0.000 H 
ENDBRANCH   17   18
ENDBRANCH   16   17
ENDBRANCH   19   16
ENDBRANCH   21   19
ENDBRANCH   22   21
BRANCH   22   23
ATOM    119  H20 UNL A   1       7.209   5.424  24.736  1.00  0.00    +0.000 H 
ATOM     23  C16 UNL A   1       6.786   5.531  23.759  1.00  0.00    +0.000 C 
ATOM    120  H21 UNL A   1       6.800   6.551  23.435  1.00  0.00    +0.000 H 
BRANCH   23   24
ATOM    121  H22 UNL A   1       7.576   3.840  23.114  1.00  0.00    +0.000 H 
ATOM     24  O3  UNL A   1       7.565   4.769  22.838  1.00  0.00    +0.000 O 
ENDBRANCH   23   24
ENDBRANCH   22   23
ENDBRANCH   25   22
ENDBRANCH   27   25
ENDBRANCH   28   27
ENDBRANCH   29   28
ENDBRANCH   30   29
ENDBRANCH   31   30
ENDBRANCH   32   31
ENDBRANCH   33   32
ENDBRANCH   34   33
ENDBRANCH   35   34
ENDBRANCH   37   35
ENDBRANCH   41   40
BRANCH   45   46
ATOM     46  C33 UNL A   1      12.012   9.788  18.888  1.00  0.00    +0.000 C 
ATOM     47  C34 UNL A   1      13.286   9.214  19.023  1.00  0.00    +0.000 C 
ATOM     48  F1  UNL A   1      14.341   9.978  19.342  1.00  0.00    +0.000 F 
ATOM     49  C35 UNL A   1      13.487   7.856  18.789  1.00  0.00    +0.000 C 
ATOM     50  F2  UNL A   1      14.721   7.340  18.877  1.00  0.00    +0.000 F 
ATOM     51  C36 UNL A   1      12.418   7.040  18.454  1.00  0.00    +0.000 C 
ATOM     52  F3  UNL A   1      12.612   5.733  18.236  1.00  0.00    +0.000 F 
ATOM     53  C37 UNL A   1      11.147   7.583  18.336  1.00  0.00    +0.000 C 
ATOM     54  F4  UNL A   1      10.109   6.794  18.022  1.00  0.00    +0.000 F 
ATOM     55  C38 UNL A   1      10.946   8.946  18.540  1.00  0.00    +0.000 C 
ATOM     56  F5  UNL A   1       9.707   9.443  18.403  1.00  0.00    +0.000 F 
ENDBRANCH   45   46
BRANCH   62   63
ATOM     65  F6  UNL A   1      14.113  16.259  15.329  1.00  0.00    +0.000 F 
ATOM     66  C46 UNL A   1      13.082  16.682  13.256  1.00  0.00    +0.000 C 
ATOM     67  F7  UNL A   1      14.267  17.039  12.741  1.00  0.00    +0.000 F 
ATOM     68  C47 UNL A   1      11.943  16.724  12.466  1.00  0.00    +0.000 C 
ATOM     69  F8  UNL A   1      12.029  17.101  11.183  1.00  0.00    +0.000 F 
ATOM     70  C48 UNL A   1      10.713  16.381  13.007  1.00  0.00    +0.000 C 
ATOM     71  F9  UNL A   1       9.614  16.409  12.242  1.00  0.00    +0.000 F 
ATOM     72  C49 UNL A   1      10.619  16.011  14.345  1.00  0.00    +0.000 C 
ATOM     73  F10 UNL A   1       9.414  15.697  14.845  1.00  0.00    +0.000 F 
ATOM     63  C44 UNL A   1      11.759  15.952  15.160  1.00  0.00    +0.000 C 
ATOM     64  C45 UNL A   1      12.996  16.284  14.586  1.00  0.00    +0.000 C 
ENDBRANCH   62   63
BRANCH   77   78
ATOM     78  C53 UNL A   1      10.782  19.449  21.104  1.00  0.00    +0.000 C 
ATOM     79  C54 UNL A   1      11.889  20.220  21.485  1.00  0.00    +0.000 C 
ATOM     80  F11 UNL A   1      13.100  19.650  21.578  1.00  0.00    +0.000 F 
ATOM     81  C55 UNL A   1      11.751  21.567  21.812  1.00  0.00    +0.000 C 
ATOM     82  F12 UNL A   1      12.818  22.269  22.216  1.00  0.00    +0.000 F 
ATOM     83  C56 UNL A   1      10.507  22.177  21.735  1.00  0.00    +0.000 C 
ATOM     84  F13 UNL A   1      10.376  23.473  22.047  1.00  0.00    +0.000 F 
ATOM     85  C57 UNL A   1       9.401  21.439  21.343  1.00  0.00    +0.000 C 
ATOM     86  F14 UNL A   1       8.200  22.028  21.255  1.00  0.00    +0.000 F 
ATOM     87  C58 UNL A   1       9.534  20.085  21.042  1.00  0.00    +0.000 C 
ATOM     88  F15 UNL A   1       8.444  19.394  20.676  1.00  0.00    +0.000 F 
ENDBRANCH   77   78
TORSDOF 28
ENDMDL
MODEL 5
REMARK VINA RESULT:      -7.6     42.657     48.318
ROOT
ATOM    138  H39 UNL A   1      18.247  50.687  -2.404  1.00  0.00    +0.000 H 
ATOM    139  H40 UNL A   1      18.799  53.231  -2.247  1.00  0.00    +0.000 H 
ATOM    140  H41 UNL A   1      16.369  52.228   0.953  1.00  0.00    +0.000 H 
ATOM    141  H42 UNL A   1      12.983  53.994   6.070  1.00  0.00    +0.000 H 
ATOM    142  H43 UNL A   1      12.459  51.512   5.916  1.00  0.00    +0.000 H 
ATOM    143  H44 UNL A   1      15.011  52.469   2.778  1.00  0.00    +0.000 H 
ATOM    144  H45 UNL A   1      16.013  57.368   3.239  1.00  0.00    +0.000 H 
ATOM    145  H46 UNL A   1      17.326  57.172   1.050  1.00  0.00    +0.000 H 
ATOM    146  H47 UNL A   1      15.516  47.298   0.736  1.00  0.00    +0.000 H 
ATOM    147  H48 UNL A   1      13.785  47.562   2.605  1.00  0.00    +0.000 H 
ATOM     41  C29 UNL A   1      13.676  50.192   3.701  1.00  0.00    +0.000 C 
ATOM     42  C30 UNL A   1      14.477  49.720   2.520  1.00  0.00    +0.000 C 
ATOM     43  N7  UNL A   1      15.284  50.398   1.744  1.00  0.00    +0.000 N 
ATOM     44  C31 UNL A   1      15.798  49.478   0.839  1.00  0.00    +0.000 C 
ATOM     45  C32 UNL A   1      16.629  49.698  -0.208  1.00  0.00    +0.000 C 
ATOM     57  C39 UNL A   1      17.139  50.991  -0.577  1.00  0.00    +0.000 C 
ATOM     58  C40 UNL A   1      17.925  51.331  -1.665  1.00  0.00    +0.000 C 
ATOM     59  C41 UNL A   1      18.208  52.699  -1.588  1.00  0.00    +0.000 C 
ATOM     60  C42 UNL A   1      17.560  53.220  -0.479  1.00  0.00    +0.000 C 
ATOM     61  N8  UNL A   1      16.911  52.161   0.133  1.00  0.00    +0.000 N 
ATOM     62  C43 UNL A   1      17.536  54.582  -0.012  1.00  0.00    +0.000 C 
ATOM     74  C50 UNL A   1      16.864  55.018   1.081  1.00  0.00    +0.000 C 
ATOM     75  N9  UNL A   1      16.078  54.298   1.970  1.00  0.00    +0.000 N 
ATOM     76  C51 UNL A   1      15.665  55.159   2.867  1.00  0.00    +0.000 C 
ATOM     77  C52 UNL A   1      14.762  54.938   4.049  1.00  0.00    +0.000 C 
ATOM     89  C59 UNL A   1      14.255  53.710   4.268  1.00  0.00    +0.000 C 
ATOM     90  C60 UNL A   1      13.347  53.347   5.353  1.00  0.00    +0.000 C 
ATOM     91  C61 UNL A   1      13.064  52.038   5.265  1.00  0.00    +0.000 C 
ATOM     92  C62 UNL A   1      13.750  51.476   4.101  1.00  0.00    +0.000 C 
ATOM     93  N10 UNL A   1      14.439  52.539   3.575  1.00  0.00    +0.000 N 
ATOM     94  C63 UNL A   1      16.163  56.526   2.661  1.00  0.00    +0.000 C 
ATOM     95  C64 UNL A   1      16.854  56.394   1.537  1.00  0.00    +0.000 C 
ATOM     96  C65 UNL A   1      15.255  48.186   1.194  1.00  0.00    +0.000 C 
ATOM     97  C66 UNL A   1      14.379  48.291   2.183  1.00  0.00    +0.000 C 
ENDROOT
BRANCH   41   40
ATOM     98  C67 UNL A   1      11.493  49.049   4.112  1.00  0.00    +0.000 C 
ATOM     99  C68 UNL A   1      10.687  48.190   4.854  1.00  0.00    +0.000 C 
ATOM     37  C25 UNL A   1      11.243  47.430   5.888  1.00  0.00    +0.000 C 
ATOM     38  C26 UNL A   1      12.580  47.611   6.250  1.00  0.00    +0.000 C 
ATOM     39  C27 UNL A   1      13.369  48.525   5.552  1.00  0.00    +0.000 C 
ATOM    136  H37 UNL A   1      12.981  47.070   7.033  1.00  0.00    +0.000 H 
ATOM     40  C28 UNL A   1      12.838  49.235   4.464  1.00  0.00    +0.000 C 
ATOM    137  H38 UNL A   1      14.349  48.679   5.837  1.00  0.00    +0.000 H 
ATOM    148  H49 UNL A   1      11.099  49.551   3.301  1.00  0.00    +0.000 H 
ATOM    149  H50 UNL A   1       9.679  48.114   4.641  1.00  0.00    +0.000 H 
BRANCH   37   35
ATOM     35  C24 UNL A   1      10.434  46.444   6.637  1.00  0.00    +0.000 C 
ATOM     36  O5  UNL A   1      10.869  45.318   6.829  1.00  0.00    +0.000 O 
BRANCH   35   34
ATOM     34  N6  UNL A   1       9.190  46.793   7.100  1.00  0.00    +0.000 N 
ATOM    135  H36 UNL A   1       8.524  46.998   6.405  1.00  0.00    +0.000 H 
BRANCH   34   33
ATOM     33  C23 UNL A   1       8.718  46.901   8.467  1.00  0.00    +0.000 C 
ATOM    133  H34 UNL A   1       7.777  47.410   8.467  1.00  0.00    +0.000 H 
ATOM    134  H35 UNL A   1       8.626  45.911   8.862  1.00  0.00    +0.000 H 
BRANCH   33   32
ATOM    131  H32 UNL A   1      10.495  48.015   8.741  1.00  0.00    +0.000 H 
ATOM    132  H33 UNL A   1       9.125  48.460   9.802  1.00  0.00    +0.000 H 
ATOM     32  C22 UNL A   1       9.690  47.668   9.354  1.00  0.00    +0.000 C 
BRANCH   32   31
ATOM    129  H30 UNL A   1      10.655  47.555  11.239  1.00  0.00    +0.000 H 
ATOM    130  H31 UNL A   1       9.497  46.238  10.871  1.00  0.00    +0.000 H 
ATOM     31  C21 UNL A   1      10.287  46.863  10.510  1.00  0.00    +0.000 C 
BRANCH   31   30
ATOM     30  C20 UNL A   1      11.432  45.919  10.134  1.00  0.00    +0.000 C 
ATOM    127  H28 UNL A   1      11.004  44.993   9.808  1.00  0.00    +0.000 H 
ATOM    128  H29 UNL A   1      11.992  46.423   9.375  1.00  0.00    +0.000 H 
BRANCH   30   29
ATOM    125  H26 UNL A   1      12.872  44.661  11.057  1.00  0.00    +0.000 H 
ATOM     29  C19 UNL A   1      12.423  45.612  11.258  1.00  0.00    +0.000 C 
ATOM    126  H27 UNL A   1      13.127  46.417  11.268  1.00  0.00    +0.000 H 
BRANCH   29   28
ATOM    124  H25 UNL A   1      11.212  44.677  12.720  1.00  0.00    +0.000 H 
ATOM    123  H24 UNL A   1      11.221  46.440  12.806  1.00  0.00    +0.000 H 
ATOM     28  C18 UNL A   1      11.811  45.560  12.653  1.00  0.00    +0.000 C 
BRANCH   28   27
ATOM    122  H23 UNL A   1      13.526  44.816  13.544  1.00  0.00    +0.000 H 
ATOM     27  N5  UNL A   1      12.826  45.494  13.685  1.00  0.00    +0.000 N 
BRANCH   27   25
ATOM     25  C17 UNL A   1      12.951  46.232  14.821  1.00  0.00    +0.000 C 
ATOM     26  O4  UNL A   1      13.842  45.903  15.612  1.00  0.00    +0.000 O 
BRANCH   25   22
ATOM    118  H19 UNL A   1      12.579  48.062  15.773  1.00  0.00    +0.000 H 
ATOM     22  C15 UNL A   1      12.006  47.388  15.173  1.00  0.00    +0.000 C 
BRANCH   22   21
ATOM    117  H18 UNL A   1      10.690  48.026  13.625  1.00  0.00    +0.000 H 
ATOM     21  N4  UNL A   1      11.586  48.169  14.006  1.00  0.00    +0.000 N 
BRANCH   21   19
ATOM     19  C14 UNL A   1      12.414  49.086  13.441  1.00  0.00    +0.000 C 
ATOM     20  O2  UNL A   1      12.800  48.847  12.294  1.00  0.00    +0.000 O 
BRANCH   19   16
ATOM    113  H14 UNL A   1      13.635  50.071  14.847  1.00  0.00    +0.000 H 
ATOM     16  C12 UNL A   1      12.835  50.362  14.199  1.00  0.00    +0.000 C 
BRANCH   16   15
ATOM     15  N3  UNL A   1      13.341  51.333  13.241  1.00  0.00    +0.000 N 
ATOM    112  H13 UNL A   1      12.688  51.863  12.731  1.00  0.00    +0.000 H 
BRANCH   15   13
ATOM     13  C11 UNL A   1      14.678  51.551  13.011  1.00  0.00    +0.000 C 
ATOM     14  O1  UNL A   1      15.427  51.478  13.989  1.00  0.00    +0.000 O 
BRANCH   13    2
ATOM      2  C1  UNL A   1      15.238  51.794  11.580  1.00  0.00    +0.000 C 
ATOM    103  H4  UNL A   1      15.206  52.852  11.421  1.00  0.00    +0.000 H 
BRANCH    2    1
ATOM      1  N1  UNL A   1      16.668  51.422  11.504  1.00  0.00    +0.000 N 
ATOM    100  H1  UNL A   1      17.196  52.192  11.092  1.00  0.00    +0.000 H 
ATOM    101  H2  UNL A   1      16.772  50.590  10.924  1.00  0.00    +0.000 H 
ATOM    102  H3  UNL A   1      17.019  51.231  12.442  1.00  0.00    +0.000 H 
ENDBRANCH    2    1
BRANCH    2    3
ATOM    105  H6  UNL A   1      15.016  51.403   9.568  1.00  0.00    +0.000 H 
ATOM      3  C2  UNL A   1      14.332  51.396  10.390  1.00  0.00    +0.000 C 
ATOM    104  H5  UNL A   1      13.866  50.473  10.661  1.00  0.00    +0.000 H 
BRANCH    3    4
ATOM      4  C3  UNL A   1      13.225  52.307   9.900  1.00  0.00    +0.000 C 
ATOM      5  C4  UNL A   1      12.946  53.624  10.228  1.00  0.00    +0.000 C 
ATOM      6  N2  UNL A   1      11.930  54.071   9.423  1.00  0.00    +0.000 N 
ATOM      7  C5  UNL A   1      11.426  53.035   8.679  1.00  0.00    +0.000 C 
ATOM      8  C6  UNL A   1      10.364  53.014   7.765  1.00  0.00    +0.000 C 
ATOM      9  C7  UNL A   1      10.008  51.780   7.215  1.00  0.00    +0.000 C 
ATOM    106  H7  UNL A   1      13.423  54.176  10.958  1.00  0.00    +0.000 H 
ATOM     11  C9  UNL A   1      11.795  50.671   8.425  1.00  0.00    +0.000 C 
ATOM     12  C10 UNL A   1      12.173  51.902   9.001  1.00  0.00    +0.000 C 
ATOM     10  C8  UNL A   1      10.701  50.620   7.552  1.00  0.00    +0.000 C 
ATOM    107  H8  UNL A   1      11.609  55.001   9.384  1.00  0.00    +0.000 H 
ATOM    111  H12 UNL A   1      12.322  49.812   8.645  1.00  0.00    +0.000 H 
ATOM    108  H9  UNL A   1       9.861  53.879   7.510  1.00  0.00    +0.000 H 
ATOM    110  H11 UNL A   1      10.406  49.715   7.155  1.00  0.00    +0.000 H 
ATOM    109  H10 UNL A   1       9.222  51.728   6.548  1.00  0.00    +0.000 H 
ENDBRANCH    3    4
ENDBRANCH    2    3
ENDBRANCH   13    2
ENDBRANCH   15   13
ENDBRANCH   16   15
BRANCH   16   17
ATOM     17  C13 UNL A   1      11.949  50.889  15.337  1.00  0.00    +0.000 C 
ATOM    114  H15 UNL A   1      12.563  51.502  15.962  1.00  0.00    +0.000 H 
ATOM    115  H16 UNL A   1      11.553  50.010  15.801  1.00  0.00    +0.000 H 
BRANCH   17   18
ATOM     18  S1  UNL A   1      10.480  51.870  14.885  1.00  0.00    +0.000 S 
ATOM    116  H17 UNL A   1      10.558  52.225  13.575  1.00  0.00    +0.000 H 
ENDBRANCH   17   18
ENDBRANCH   16   17
ENDBRANCH   19   16
ENDBRANCH   21   19
ENDBRANCH   22   21
BRANCH   22   23
ATOM    119  H20 UNL A   1      11.202  46.447  16.915  1.00  0.00    +0.000 H 
ATOM     23  C16 UNL A   1      10.821  46.929  16.039  1.00  0.00    +0.000 C 
ATOM    120  H21 UNL A   1      10.226  46.260  15.451  1.00  0.00    +0.000 H 
BRANCH   23   24
ATOM    121  H22 UNL A   1       9.060  47.736  16.423  1.00  0.00    +0.000 H 
ATOM     24  O3  UNL A   1       9.988  48.016  16.439  1.00  0.00    +0.000 O 
ENDBRANCH   23   24
ENDBRANCH   22   23
ENDBRANCH   25   22
ENDBRANCH   27   25
ENDBRANCH   28   27
ENDBRANCH   29   28
ENDBRANCH   30   29
ENDBRANCH   31   30
ENDBRANCH   32   31
ENDBRANCH   33   32
ENDBRANCH   34   33
ENDBRANCH   35   34
ENDBRANCH   37   35
ENDBRANCH   41   40
BRANCH   45   46
ATOM     46  C33 UNL A   1      17.033  48.512  -1.034  1.00  0.00    +0.000 C 
ATOM     47  C34 UNL A   1      16.361  48.180  -2.221  1.00  0.00    +0.000 C 
ATOM     48  F1  UNL A   1      15.301  48.897  -2.621  1.00  0.00    +0.000 F 
ATOM     49  C35 UNL A   1      16.754  47.082  -2.983  1.00  0.00    +0.000 C 
ATOM     50  F2  UNL A   1      16.067  46.756  -4.087  1.00  0.00    +0.000 F 
ATOM     51  C36 UNL A   1      17.844  46.319  -2.596  1.00  0.00    +0.000 C 
ATOM     52  F3  UNL A   1      18.225  45.267  -3.333  1.00  0.00    +0.000 F 
ATOM     53  C37 UNL A   1      18.535  46.642  -1.437  1.00  0.00    +0.000 C 
ATOM     54  F4  UNL A   1      19.597  45.911  -1.066  1.00  0.00    +0.000 F 
ATOM     55  C38 UNL A   1      18.128  47.721  -0.657  1.00  0.00    +0.000 C 
ATOM     56  F5  UNL A   1      18.807  47.998   0.466  1.00  0.00    +0.000 F 
ENDBRANCH   45   46
BRANCH   62   63
ATOM     65  F6  UNL A   1      16.415  56.086  -2.177  1.00  0.00    +0.000 F 
ATOM     66  C46 UNL A   1      18.404  57.287  -2.554  1.00  0.00    +0.000 C 
ATOM     67  F7  UNL A   1      17.819  57.937  -3.570  1.00  0.00    +0.000 F 
ATOM     68  C47 UNL A   1      19.725  57.557  -2.229  1.00  0.00    +0.000 C 
ATOM     69  F8  UNL A   1      20.410  58.482  -2.916  1.00  0.00    +0.000 F 
ATOM     70  C48 UNL A   1      20.339  56.865  -1.197  1.00  0.00    +0.000 C 
ATOM     71  F9  UNL A   1      21.611  57.134  -0.873  1.00  0.00    +0.000 F 
ATOM     72  C49 UNL A   1      19.637  55.889  -0.497  1.00  0.00    +0.000 C 
ATOM     73  F10 UNL A   1      20.259  55.225   0.489  1.00  0.00    +0.000 F 
ATOM     63  C44 UNL A   1      18.296  55.605  -0.802  1.00  0.00    +0.000 C 
ATOM     64  C45 UNL A   1      17.689  56.332  -1.837  1.00  0.00    +0.000 C 
ENDBRANCH   62   63
BRANCH   77   78
ATOM     78  C53 UNL A   1      14.401  56.060   4.954  1.00  0.00    +0.000 C 
ATOM     79  C54 UNL A   1      13.182  56.738   4.809  1.00  0.00    +0.000 C 
ATOM     80  F11 UNL A   1      12.334  56.386   3.832  1.00  0.00    +0.000 F 
ATOM     81  C55 UNL A   1      12.848  57.804   5.641  1.00  0.00    +0.000 C 
ATOM     82  F12 UNL A   1      11.696  58.463   5.453  1.00  0.00    +0.000 F 
ATOM     83  C56 UNL A   1      13.713  58.194   6.653  1.00  0.00    +0.000 C 
ATOM     84  F13 UNL A   1      13.390  59.218   7.454  1.00  0.00    +0.000 F 
ATOM     85  C57 UNL A   1      14.916  57.527   6.826  1.00  0.00    +0.000 C 
ATOM     86  F14 UNL A   1      15.749  57.892   7.811  1.00  0.00    +0.000 F 
ATOM     87  C58 UNL A   1      15.263  56.477   5.977  1.00  0.00    +0.000 C 
ATOM     88  F15 UNL A   1      16.437  55.857   6.162  1.00  0.00    +0.000 F 
ENDBRANCH   77   78
TORSDOF 28
ENDMDL
MODEL 6
REMARK VINA RESULT:      -7.5     43.167     48.803
ROOT
ATOM    138  H39 UNL A   1      18.229  50.837  -2.434  1.00  0.00    +0.000 H 
ATOM    139  H40 UNL A   1      18.777  53.380  -2.248  1.00  0.00    +0.000 H 
ATOM    140  H41 UNL A   1      16.377  52.329   0.959  1.00  0.00    +0.000 H 
ATOM    141  H42 UNL A   1      13.033  54.019   6.129  1.00  0.00    +0.000 H 
ATOM    142  H43 UNL A   1      12.514  51.538   5.947  1.00  0.00    +0.000 H 
ATOM    143  H44 UNL A   1      15.036  52.543   2.799  1.00  0.00    +0.000 H 
ATOM    144  H45 UNL A   1      16.030  57.438   3.315  1.00  0.00    +0.000 H 
ATOM    145  H46 UNL A   1      17.324  57.274   1.113  1.00  0.00    +0.000 H 
ATOM    146  H47 UNL A   1      15.535  47.400   0.686  1.00  0.00    +0.000 H 
ATOM    147  H48 UNL A   1      13.820  47.635   2.573  1.00  0.00    +0.000 H 
ATOM     41  C29 UNL A   1      13.715  50.251   3.705  1.00  0.00    +0.000 C 
ATOM     42  C30 UNL A   1      14.506  49.796   2.511  1.00  0.00    +0.000 C 
ATOM     43  N7  UNL A   1      15.304  50.486   1.736  1.00  0.00    +0.000 N 
ATOM     44  C31 UNL A   1      15.813  49.580   0.815  1.00  0.00    +0.000 C 
ATOM     45  C32 UNL A   1      16.634  49.815  -0.237  1.00  0.00    +0.000 C 
ATOM     57  C39 UNL A   1      17.137  51.115  -0.593  1.00  0.00    +0.000 C 
ATOM     58  C40 UNL A   1      17.912  51.470  -1.683  1.00  0.00    +0.000 C 
ATOM     59  C41 UNL A   1      18.193  52.839  -1.592  1.00  0.00    +0.000 C 
ATOM     60  C42 UNL A   1      17.554  53.343  -0.470  1.00  0.00    +0.000 C 
ATOM     61  N8  UNL A   1      16.913  52.274   0.134  1.00  0.00    +0.000 N 
ATOM     62  C43 UNL A   1      17.530  54.699   0.015  1.00  0.00    +0.000 C 
ATOM     74  C50 UNL A   1      16.867  55.119   1.120  1.00  0.00    +0.000 C 
ATOM     75  N9  UNL A   1      16.091  54.385   2.006  1.00  0.00    +0.000 N 
ATOM     76  C51 UNL A   1      15.684  55.233   2.918  1.00  0.00    +0.000 C 
ATOM     77  C52 UNL A   1      14.792  54.995   4.105  1.00  0.00    +0.000 C 
ATOM     89  C59 UNL A   1      14.289  53.763   4.312  1.00  0.00    +0.000 C 
ATOM     90  C60 UNL A   1      13.393  53.383   5.400  1.00  0.00    +0.000 C 
ATOM     91  C61 UNL A   1      13.112  52.074   5.298  1.00  0.00    +0.000 C 
ATOM     92  C62 UNL A   1      13.788  51.530   4.120  1.00  0.00    +0.000 C 
ATOM     93  N10 UNL A   1      14.470  52.601   3.602  1.00  0.00    +0.000 N 
ATOM     94  C63 UNL A   1      16.176  56.604   2.725  1.00  0.00    +0.000 C 
ATOM     95  C64 UNL A   1      16.858  56.488   1.594  1.00  0.00    +0.000 C 
ATOM     96  C65 UNL A   1      15.276  48.282   1.157  1.00  0.00    +0.000 C 
ATOM     97  C66 UNL A   1      14.409  48.372   2.155  1.00  0.00    +0.000 C 
ENDROOT
BRANCH   41   40
ATOM     98  C67 UNL A   1      11.534  49.108   4.130  1.00  0.00    +0.000 C 
ATOM     99  C68 UNL A   1      10.737  48.237   4.867  1.00  0.00    +0.000 C 
ATOM     37  C25 UNL A   1      11.307  47.455   5.876  1.00  0.00    +0.000 C 
ATOM     38  C26 UNL A   1      12.651  47.623   6.220  1.00  0.00    +0.000 C 
ATOM     39  C27 UNL A   1      13.432  48.547   5.527  1.00  0.00    +0.000 C 
ATOM    136  H37 UNL A   1      13.063  47.065   6.984  1.00  0.00    +0.000 H 
ATOM     40  C28 UNL A   1      12.886  49.282   4.462  1.00  0.00    +0.000 C 
ATOM    137  H38 UNL A   1      14.417  48.692   5.798  1.00  0.00    +0.000 H 
ATOM    148  H49 UNL A   1      11.129  49.628   3.335  1.00  0.00    +0.000 H 
ATOM    149  H50 UNL A   1       9.726  48.169   4.670  1.00  0.00    +0.000 H 
BRANCH   37   35
ATOM     35  C24 UNL A   1      10.507  46.456   6.619  1.00  0.00    +0.000 C 
ATOM     36  O5  UNL A   1      10.727  45.264   6.468  1.00  0.00    +0.000 O 
BRANCH   35   34
ATOM     34  N6  UNL A   1       9.510  46.874   7.464  1.00  0.00    +0.000 N 
ATOM    135  H36 UNL A   1       8.862  47.504   7.073  1.00  0.00    +0.000 H 
BRANCH   34   33
ATOM     33  C23 UNL A   1       9.275  46.518   8.851  1.00  0.00    +0.000 C 
ATOM    133  H34 UNL A   1       8.254  46.730   9.092  1.00  0.00    +0.000 H 
ATOM    134  H35 UNL A   1       9.495  45.477   8.964  1.00  0.00    +0.000 H 
BRANCH   33   32
ATOM    131  H32 UNL A   1      10.668  48.060   9.247  1.00  0.00    +0.000 H 
ATOM    132  H33 UNL A   1       9.537  47.670  10.577  1.00  0.00    +0.000 H 
ATOM     32  C22 UNL A   1      10.175  47.292   9.805  1.00  0.00    +0.000 C 
BRANCH   32   31
ATOM    129  H30 UNL A   1      11.703  47.066  11.258  1.00  0.00    +0.000 H 
ATOM    130  H31 UNL A   1      10.737  45.599  10.902  1.00  0.00    +0.000 H 
ATOM     31  C21 UNL A   1      11.245  46.455  10.509  1.00  0.00    +0.000 C 
BRANCH   31   30
ATOM     30  C20 UNL A   1      12.353  45.907   9.604  1.00  0.00    +0.000 C 
ATOM    127  H28 UNL A   1      12.646  44.950   9.983  1.00  0.00    +0.000 H 
ATOM    128  H29 UNL A   1      11.938  45.870   8.619  1.00  0.00    +0.000 H 
BRANCH   30   29
ATOM    125  H26 UNL A   1      14.452  46.135   9.381  1.00  0.00    +0.000 H 
ATOM     29  C19 UNL A   1      13.606  46.779   9.503  1.00  0.00    +0.000 C 
ATOM    126  H27 UNL A   1      13.451  47.434   8.672  1.00  0.00    +0.000 H 
BRANCH   29   28
ATOM    124  H25 UNL A   1      14.320  47.078  11.472  1.00  0.00    +0.000 H 
ATOM    123  H24 UNL A   1      12.930  48.079  11.046  1.00  0.00    +0.000 H 
ATOM     28  C18 UNL A   1      13.862  47.673  10.711  1.00  0.00    +0.000 C 
BRANCH   28   27
ATOM    122  H23 UNL A   1      15.695  48.505  10.224  1.00  0.00    +0.000 H 
ATOM     27  N5  UNL A   1      14.760  48.764  10.394  1.00  0.00    +0.000 N 
BRANCH   27   25
ATOM     25  C17 UNL A   1      14.500  50.097  10.297  1.00  0.00    +0.000 C 
ATOM     26  O4  UNL A   1      14.298  50.551   9.165  1.00  0.00    +0.000 O 
BRANCH   25   22
ATOM    118  H19 UNL A   1      13.865  51.851  11.253  1.00  0.00    +0.000 H 
ATOM     22  C15 UNL A   1      14.513  51.039  11.507  1.00  0.00    +0.000 C 
BRANCH   22   21
ATOM    117  H18 UNL A   1      14.471  49.825  13.257  1.00  0.00    +0.000 H 
ATOM     21  N4  UNL A   1      13.930  50.442  12.713  1.00  0.00    +0.000 N 
BRANCH   21   19
ATOM     19  C14 UNL A   1      12.656  50.723  13.089  1.00  0.00    +0.000 C 
ATOM     20  O2  UNL A   1      11.759  50.125  12.490  1.00  0.00    +0.000 O 
BRANCH   19   16
ATOM    113  H14 UNL A   1      13.304  52.116  14.531  1.00  0.00    +0.000 H 
ATOM     16  C12 UNL A   1      12.357  51.733  14.217  1.00  0.00    +0.000 C 
BRANCH   16   15
ATOM     15  N3  UNL A   1      11.569  52.827  13.671  1.00  0.00    +0.000 N 
ATOM    112  H13 UNL A   1      10.591  52.723  13.638  1.00  0.00    +0.000 H 
BRANCH   15   13
ATOM     13  C11 UNL A   1      12.114  53.998  13.200  1.00  0.00    +0.000 C 
ATOM     14  O1  UNL A   1      13.260  54.264  13.573  1.00  0.00    +0.000 O 
BRANCH   13    2
ATOM      2  C1  UNL A   1      11.364  54.904  12.182  1.00  0.00    +0.000 C 
ATOM    103  H4  UNL A   1      10.420  54.434  12.001  1.00  0.00    +0.000 H 
BRANCH    2    1
ATOM      1  N1  UNL A   1      11.046  56.218  12.782  1.00  0.00    +0.000 N 
ATOM    100  H1  UNL A   1      11.530  56.309  13.675  1.00  0.00    +0.000 H 
ATOM    101  H2  UNL A   1      10.039  56.288  12.932  1.00  0.00    +0.000 H 
ATOM    102  H3  UNL A   1      11.349  56.961  12.153  1.00  0.00    +0.000 H 
ENDBRANCH    2    1
BRANCH    2    3
ATOM    105  H6  UNL A   1      11.433  55.781  10.318  1.00  0.00    +0.000 H 
ATOM      3  C2  UNL A   1      11.867  54.889  10.719  1.00  0.00    +0.000 C 
ATOM    104  H5  UNL A   1      12.932  54.815  10.766  1.00  0.00    +0.000 H 
BRANCH    3    4
ATOM      4  C3  UNL A   1      11.407  53.832   9.736  1.00  0.00    +0.000 C 
ATOM      5  C4  UNL A   1      11.443  52.451   9.832  1.00  0.00    +0.000 C 
ATOM      6  N2  UNL A   1      10.784  51.918   8.754  1.00  0.00    +0.000 N 
ATOM      7  C5  UNL A   1      10.449  52.909   7.868  1.00  0.00    +0.000 C 
ATOM      8  C6  UNL A   1       9.815  52.828   6.621  1.00  0.00    +0.000 C 
ATOM      9  C7  UNL A   1       9.681  54.008   5.885  1.00  0.00    +0.000 C 
ATOM    106  H7  UNL A   1      11.892  51.913  10.590  1.00  0.00    +0.000 H 
ATOM     11  C9  UNL A   1      10.728  55.289   7.659  1.00  0.00    +0.000 C 
ATOM     12  C10 UNL A   1      10.882  54.114   8.423  1.00  0.00    +0.000 C 
ATOM     10  C8  UNL A   1      10.147  55.220   6.387  1.00  0.00    +0.000 C 
ATOM    107  H8  UNL A   1      10.580  50.962   8.635  1.00  0.00    +0.000 H 
ATOM    111  H12 UNL A   1      11.042  56.197   8.035  1.00  0.00    +0.000 H 
ATOM    108  H9  UNL A   1       9.462  51.928   6.259  1.00  0.00    +0.000 H 
ATOM    110  H11 UNL A   1      10.062  56.075   5.816  1.00  0.00    +0.000 H 
ATOM    109  H10 UNL A   1       9.231  53.980   4.957  1.00  0.00    +0.000 H 
ENDBRANCH    3    4
ENDBRANCH    2    3
ENDBRANCH   13    2
ENDBRANCH   15   13
ENDBRANCH   16   15
BRANCH   16   17
ATOM     17  C13 UNL A   1      11.973  51.214  15.611  1.00  0.00    +0.000 C 
ATOM    114  H15 UNL A   1      12.882  51.031  16.144  1.00  0.00    +0.000 H 
ATOM    115  H16 UNL A   1      11.370  50.352  15.421  1.00  0.00    +0.000 H 
BRANCH   17   18
ATOM     18  S1  UNL A   1      10.932  52.283  16.659  1.00  0.00    +0.000 S 
ATOM    116  H17 UNL A   1      11.376  53.566  16.580  1.00  0.00    +0.000 H 
ENDBRANCH   17   18
ENDBRANCH   16   17
ENDBRANCH   19   16
ENDBRANCH   21   19
ENDBRANCH   22   21
BRANCH   22   23
ATOM    119  H20 UNL A   1      16.203  52.187  10.883  1.00  0.00    +0.000 H 
ATOM     23  C16 UNL A   1      15.902  51.648  11.757  1.00  0.00    +0.000 C 
ATOM    120  H21 UNL A   1      16.577  50.845  11.974  1.00  0.00    +0.000 H 
BRANCH   23   24
ATOM    121  H22 UNL A   1      15.081  52.451  13.363  1.00  0.00    +0.000 H 
ATOM     24  O3  UNL A   1      15.911  52.539  12.871  1.00  0.00    +0.000 O 
ENDBRANCH   23   24
ENDBRANCH   22   23
ENDBRANCH   25   22
ENDBRANCH   27   25
ENDBRANCH   28   27
ENDBRANCH   29   28
ENDBRANCH   30   29
ENDBRANCH   31   30
ENDBRANCH   32   31
ENDBRANCH   33   32
ENDBRANCH   34   33
ENDBRANCH   35   34
ENDBRANCH   37   35
ENDBRANCH   41   40
BRANCH   45   46
ATOM     46  C33 UNL A   1      17.034  48.641  -1.082  1.00  0.00    +0.000 C 
ATOM     47  C34 UNL A   1      18.091  47.796  -0.712  1.00  0.00    +0.000 C 
ATOM     48  F1  UNL A   1      18.805  48.051   0.394  1.00  0.00    +0.000 F 
ATOM     49  C35 UNL A   1      18.445  46.704  -1.502  1.00  0.00    +0.000 C 
ATOM     50  F2  UNL A   1      19.488  45.938  -1.153  1.00  0.00    +0.000 F 
ATOM     51  C36 UNL A   1      17.728  46.415  -2.652  1.00  0.00    +0.000 C 
ATOM     52  F3  UNL A   1      18.066  45.361  -3.407  1.00  0.00    +0.000 F 
ATOM     53  C37 UNL A   1      16.667  47.226  -3.026  1.00  0.00    +0.000 C 
ATOM     54  F4  UNL A   1      15.966  46.942  -4.133  1.00  0.00    +0.000 F 
ATOM     55  C38 UNL A   1      16.329  48.335  -2.255  1.00  0.00    +0.000 C 
ATOM     56  F5  UNL A   1      15.307  49.109  -2.651  1.00  0.00    +0.000 F 
ENDBRANCH   45   46
BRANCH   62   63
ATOM     65  F6  UNL A   1      20.250  55.437   0.534  1.00  0.00    +0.000 F 
ATOM     66  C46 UNL A   1      20.309  56.992  -1.231  1.00  0.00    +0.000 C 
ATOM     67  F7  UNL A   1      21.574  57.301  -0.916  1.00  0.00    +0.000 F 
ATOM     68  C47 UNL A   1      19.682  57.635  -2.289  1.00  0.00    +0.000 C 
ATOM     69  F8  UNL A   1      20.348  58.549  -3.008  1.00  0.00    +0.000 F 
ATOM     70  C48 UNL A   1      18.364  57.336  -2.597  1.00  0.00    +0.000 C 
ATOM     71  F9  UNL A   1      17.762  57.946  -3.627  1.00  0.00    +0.000 F 
ATOM     72  C49 UNL A   1      17.665  56.403  -1.837  1.00  0.00    +0.000 C 
ATOM     73  F10 UNL A   1      16.387  56.142  -2.150  1.00  0.00    +0.000 F 
ATOM     63  C44 UNL A   1      18.281  55.734  -0.768  1.00  0.00    +0.000 C 
ATOM     64  C45 UNL A   1      19.622  56.038  -0.487  1.00  0.00    +0.000 C 
ENDBRANCH   62   63
BRANCH   77   78
ATOM     78  C53 UNL A   1      14.436  56.104   5.027  1.00  0.00    +0.000 C 
ATOM     79  C54 UNL A   1      13.177  56.718   4.964  1.00  0.00    +0.000 C 
ATOM     80  F11 UNL A   1      12.284  56.316   4.048  1.00  0.00    +0.000 F 
ATOM     81  C55 UNL A   1      12.846  57.771   5.812  1.00  0.00    +0.000 C 
ATOM     82  F12 UNL A   1      11.652  58.370   5.700  1.00  0.00    +0.000 F 
ATOM     83  C56 UNL A   1      13.757  58.213   6.760  1.00  0.00    +0.000 C 
ATOM     84  F13 UNL A   1      13.437  59.225   7.578  1.00  0.00    +0.000 F 
ATOM     85  C57 UNL A   1      15.001  57.609   6.854  1.00  0.00    +0.000 C 
ATOM     86  F14 UNL A   1      15.879  58.024   7.779  1.00  0.00    +0.000 F 
ATOM     87  C58 UNL A   1      15.343  56.572   5.988  1.00  0.00    +0.000 C 
ATOM     88  F15 UNL A   1      16.558  56.014   6.095  1.00  0.00    +0.000 F 
ENDBRANCH   77   78
TORSDOF 28
ENDMDL
MODEL 7
REMARK VINA RESULT:      -7.5     44.015     50.751
ROOT
ATOM    138  H39 UNL A   1      52.696  31.334   7.171  1.00  0.00    +0.000 H 
ATOM    139  H40 UNL A   1      52.841  32.322   4.762  1.00  0.00    +0.000 H 
ATOM    140  H41 UNL A   1      55.050  28.821   4.867  1.00  0.00    +0.000 H 
ATOM    141  H42 UNL A   1      58.989  24.699   1.993  1.00  0.00    +0.000 H 
ATOM    142  H43 UNL A   1      58.833  23.737   4.339  1.00  0.00    +0.000 H 
ATOM    143  H44 UNL A   1      56.497  27.173   4.217  1.00  0.00    +0.000 H 
ATOM    144  H45 UNL A   1      56.844  28.928  -0.475  1.00  0.00    +0.000 H 
ATOM    145  H46 UNL A   1      55.436  30.919   0.305  1.00  0.00    +0.000 H 
ATOM    146  H47 UNL A   1      54.562  26.843   9.442  1.00  0.00    +0.000 H 
ATOM    147  H48 UNL A   1      56.377  25.137   8.848  1.00  0.00    +0.000 H 
ATOM     41  C29 UNL A   1      57.221  25.264   6.127  1.00  0.00    +0.000 C 
ATOM     42  C30 UNL A   1      56.276  26.189   6.842  1.00  0.00    +0.000 C 
ATOM     43  N7  UNL A   1      55.645  27.242   6.385  1.00  0.00    +0.000 N 
ATOM     44  C31 UNL A   1      54.870  27.704   7.440  1.00  0.00    +0.000 C 
ATOM     45  C32 UNL A   1      54.084  28.807   7.490  1.00  0.00    +0.000 C 
ATOM     57  C39 UNL A   1      53.919  29.731   6.401  1.00  0.00    +0.000 C 
ATOM     58  C40 UNL A   1      53.207  30.918   6.377  1.00  0.00    +0.000 C 
ATOM     59  C41 UNL A   1      53.298  31.456   5.088  1.00  0.00    +0.000 C 
ATOM     60  C42 UNL A   1      54.105  30.628   4.323  1.00  0.00    +0.000 C 
ATOM     61  N8  UNL A   1      54.476  29.573   5.141  1.00  0.00    +0.000 N 
ATOM     62  C43 UNL A   1      54.507  30.786   2.950  1.00  0.00    +0.000 C 
ATOM     74  C50 UNL A   1      55.315  29.935   2.272  1.00  0.00    +0.000 C 
ATOM     75  N9  UNL A   1      55.919  28.766   2.711  1.00  0.00    +0.000 N 
ATOM     76  C51 UNL A   1      56.581  28.293   1.684  1.00  0.00    +0.000 C 
ATOM     77  C52 UNL A   1      57.442  27.063   1.595  1.00  0.00    +0.000 C 
ATOM     89  C59 UNL A   1      57.615  26.302   2.692  1.00  0.00    +0.000 C 
ATOM     90  C60 UNL A   1      58.438  25.098   2.769  1.00  0.00    +0.000 C 
ATOM     91  C61 UNL A   1      58.362  24.595   4.011  1.00  0.00    +0.000 C 
ATOM     92  C62 UNL A   1      57.505  25.458   4.825  1.00  0.00    +0.000 C 
ATOM     93  N10 UNL A   1      57.100  26.440   3.958  1.00  0.00    +0.000 N 
ATOM     94  C63 UNL A   1      56.453  29.101   0.464  1.00  0.00    +0.000 C 
ATOM     95  C64 UNL A   1      55.706  30.111   0.888  1.00  0.00    +0.000 C 
ATOM     96  C65 UNL A   1      55.066  26.790   8.543  1.00  0.00    +0.000 C 
ATOM     97  C66 UNL A   1      55.979  25.876   8.248  1.00  0.00    +0.000 C 
ENDROOT
BRANCH   41   40
ATOM     98  C67 UNL A   1      59.056  24.225   7.467  1.00  0.00    +0.000 C 
ATOM     99  C68 UNL A   1      59.635  23.126   8.095  1.00  0.00    +0.000 C 
ATOM     37  C25 UNL A   1      58.927  21.924   8.192  1.00  0.00    +0.000 C 
ATOM     38  C26 UNL A   1      57.685  21.789   7.566  1.00  0.00    +0.000 C 
ATOM     39  C27 UNL A   1      57.136  22.870   6.876  1.00  0.00    +0.000 C 
ATOM    136  H37 UNL A   1      57.177  20.892   7.614  1.00  0.00    +0.000 H 
ATOM     40  C28 UNL A   1      57.807  24.103   6.839  1.00  0.00    +0.000 C 
ATOM    137  H38 UNL A   1      56.232  22.762   6.390  1.00  0.00    +0.000 H 
ATOM    148  H49 UNL A   1      59.547  25.133   7.463  1.00  0.00    +0.000 H 
ATOM    149  H50 UNL A   1      60.588  23.197   8.488  1.00  0.00    +0.000 H 
BRANCH   37   35
ATOM     35  C24 UNL A   1      59.478  20.765   8.929  1.00  0.00    +0.000 C 
ATOM     36  O5  UNL A   1      60.565  20.853   9.479  1.00  0.00    +0.000 O 
BRANCH   35   34
ATOM     34  N6  UNL A   1      58.770  19.591   8.979  1.00  0.00    +0.000 N 
ATOM    135  H36 UNL A   1      58.890  18.992   8.207  1.00  0.00    +0.000 H 
BRANCH   34   33
ATOM     33  C23 UNL A   1      57.869  19.106  10.008  1.00  0.00    +0.000 C 
ATOM    133  H34 UNL A   1      58.447  18.638  10.779  1.00  0.00    +0.000 H 
ATOM    134  H35 UNL A   1      57.321  19.944  10.386  1.00  0.00    +0.000 H 
BRANCH   33   32
ATOM    131  H32 UNL A   1      57.130  17.875   8.455  1.00  0.00    +0.000 H 
ATOM    132  H33 UNL A   1      56.916  17.247  10.116  1.00  0.00    +0.000 H 
ATOM     32  C22 UNL A   1      56.865  18.097   9.467  1.00  0.00    +0.000 C 
BRANCH   32   31
ATOM    129  H30 UNL A   1      55.386  19.572   9.835  1.00  0.00    +0.000 H 
ATOM    130  H31 UNL A   1      55.049  18.443   8.484  1.00  0.00    +0.000 H 
ATOM     31  C21 UNL A   1      55.407  18.560   9.486  1.00  0.00    +0.000 C 
BRANCH   31   30
ATOM     30  C20 UNL A   1      54.465  17.737  10.368  1.00  0.00    +0.000 C 
ATOM    127  H28 UNL A   1      55.013  16.898  10.745  1.00  0.00    +0.000 H 
ATOM    128  H29 UNL A   1      54.120  18.401  11.132  1.00  0.00    +0.000 H 
BRANCH   30   29
ATOM    125  H26 UNL A   1      53.164  17.639   8.693  1.00  0.00    +0.000 H 
ATOM     29  C19 UNL A   1      53.211  17.207   9.671  1.00  0.00    +0.000 C 
ATOM    126  H27 UNL A   1      53.301  16.141   9.658  1.00  0.00    +0.000 H 
BRANCH   29   28
ATOM    124  H25 UNL A   1      51.753  16.773  11.142  1.00  0.00    +0.000 H 
ATOM    123  H24 UNL A   1      51.105  17.506   9.673  1.00  0.00    +0.000 H 
ATOM     28  C18 UNL A   1      51.902  17.516  10.387  1.00  0.00    +0.000 C 
BRANCH   28   27
ATOM    122  H23 UNL A   1      52.709  18.971  11.620  1.00  0.00    +0.000 H 
ATOM     27  N5  UNL A   1      51.933  18.812  11.034  1.00  0.00    +0.000 N 
BRANCH   27   25
ATOM     25  C17 UNL A   1      51.047  19.841  10.950  1.00  0.00    +0.000 C 
ATOM     26  O4  UNL A   1      50.160  19.894  11.808  1.00  0.00    +0.000 O 
BRANCH   25   22
ATOM    118  H19 UNL A   1      50.672  21.774  10.229  1.00  0.00    +0.000 H 
ATOM     22  C15 UNL A   1      51.074  20.873   9.815  1.00  0.00    +0.000 C 
BRANCH   22   21
ATOM    117  H18 UNL A   1      52.834  20.735   8.622  1.00  0.00    +0.000 H 
ATOM     21  N4  UNL A   1      52.431  21.220   9.378  1.00  0.00    +0.000 N 
BRANCH   21   19
ATOM     19  C14 UNL A   1      53.140  22.196  10.001  1.00  0.00    +0.000 C 
ATOM     20  O2  UNL A   1      54.368  22.129   9.909  1.00  0.00    +0.000 O 
BRANCH   19   16
ATOM    113  H14 UNL A   1      51.408  23.047  10.846  1.00  0.00    +0.000 H 
ATOM     16  C12 UNL A   1      52.436  23.333  10.772  1.00  0.00    +0.000 C 
BRANCH   16   15
ATOM     15  N3  UNL A   1      52.997  23.411  12.111  1.00  0.00    +0.000 N 
ATOM    112  H13 UNL A   1      53.557  24.188  12.334  1.00  0.00    +0.000 H 
BRANCH   15   13
ATOM     13  C11 UNL A   1      52.788  22.460  13.082  1.00  0.00    +0.000 C 
ATOM     14  O1  UNL A   1      51.632  22.337  13.496  1.00  0.00    +0.000 O 
BRANCH   13    2
ATOM      2  C1  UNL A   1      53.928  21.524  13.577  1.00  0.00    +0.000 C 
ATOM    103  H4  UNL A   1      53.945  20.691  12.906  1.00  0.00    +0.000 H 
BRANCH    2    1
ATOM      1  N1  UNL A   1      55.246  22.179  13.434  1.00  0.00    +0.000 N 
ATOM    100  H1  UNL A   1      55.935  21.492  13.126  1.00  0.00    +0.000 H 
ATOM    101  H2  UNL A   1      55.532  22.568  14.333  1.00  0.00    +0.000 H 
ATOM    102  H3  UNL A   1      55.180  22.927  12.744  1.00  0.00    +0.000 H 
ENDBRANCH    2    1
BRANCH    2    3
ATOM    105  H6  UNL A   1      53.353  21.479  15.556  1.00  0.00    +0.000 H 
ATOM      3  C2  UNL A   1      53.667  20.718  14.872  1.00  0.00    +0.000 C 
ATOM    104  H5  UNL A   1      52.976  19.945  14.613  1.00  0.00    +0.000 H 
BRANCH    3    4
ATOM      4  C3  UNL A   1      54.796  20.048  15.627  1.00  0.00    +0.000 C 
ATOM      5  C4  UNL A   1      55.325  20.335  16.875  1.00  0.00    +0.000 C 
ATOM      6  N2  UNL A   1      56.241  19.365  17.197  1.00  0.00    +0.000 N 
ATOM      7  C5  UNL A   1      56.443  18.532  16.127  1.00  0.00    +0.000 C 
ATOM      8  C6  UNL A   1      57.313  17.443  15.983  1.00  0.00    +0.000 C 
ATOM      9  C7  UNL A   1      57.375  16.825  14.732  1.00  0.00    +0.000 C 
ATOM    106  H7  UNL A   1      55.073  21.143  17.464  1.00  0.00    +0.000 H 
ATOM     11  C9  UNL A   1      55.681  18.323  13.855  1.00  0.00    +0.000 C 
ATOM     12  C10 UNL A   1      55.600  18.971  15.105  1.00  0.00    +0.000 C 
ATOM     10  C8  UNL A   1      56.584  17.268  13.675  1.00  0.00    +0.000 C 
ATOM    107  H8  UNL A   1      56.687  19.279  18.070  1.00  0.00    +0.000 H 
ATOM    111  H12 UNL A   1      55.076  18.625  13.075  1.00  0.00    +0.000 H 
ATOM    108  H9  UNL A   1      57.889  17.111  16.773  1.00  0.00    +0.000 H 
ATOM    110  H11 UNL A   1      56.663  16.815  12.752  1.00  0.00    +0.000 H 
ATOM    109  H10 UNL A   1      58.015  16.028  14.589  1.00  0.00    +0.000 H 
ENDBRANCH    3    4
ENDBRANCH    2    3
ENDBRANCH   13    2
ENDBRANCH   15   13
ENDBRANCH   16   15
BRANCH   16   17
ATOM     17  C13 UNL A   1      52.137  24.657  10.053  1.00  0.00    +0.000 C 
ATOM    114  H15 UNL A   1      52.981  24.883   9.436  1.00  0.00    +0.000 H 
ATOM    115  H16 UNL A   1      51.943  25.354  10.841  1.00  0.00    +0.000 H 
BRANCH   17   18
ATOM     18  S1  UNL A   1      50.653  24.733   8.996  1.00  0.00    +0.000 S 
ATOM    116  H17 UNL A   1      50.453  23.524   8.407  1.00  0.00    +0.000 H 
ENDBRANCH   17   18
ENDBRANCH   16   17
ENDBRANCH   19   16
ENDBRANCH   21   19
ENDBRANCH   22   21
BRANCH   22   23
ATOM    119  H20 UNL A   1      49.859  21.367   8.128  1.00  0.00    +0.000 H 
ATOM     23  C16 UNL A   1      50.156  20.479   8.647  1.00  0.00    +0.000 C 
ATOM    120  H21 UNL A   1      49.311  19.963   9.054  1.00  0.00    +0.000 H 
BRANCH   23   24
ATOM    121  H22 UNL A   1      51.616  19.260   8.117  1.00  0.00    +0.000 H 
ATOM     24  O3  UNL A   1      50.799  19.602   7.723  1.00  0.00    +0.000 O 
ENDBRANCH   23   24
ENDBRANCH   22   23
ENDBRANCH   25   22
ENDBRANCH   27   25
ENDBRANCH   28   27
ENDBRANCH   29   28
ENDBRANCH   30   29
ENDBRANCH   31   30
ENDBRANCH   32   31
ENDBRANCH   33   32
ENDBRANCH   34   33
ENDBRANCH   35   34
ENDBRANCH   37   35
ENDBRANCH   41   40
BRANCH   45   46
ATOM     46  C33 UNL A   1      53.347  29.076   8.770  1.00  0.00    +0.000 C 
ATOM     47  C34 UNL A   1      52.046  28.595   8.984  1.00  0.00    +0.000 C 
ATOM     48  F1  UNL A   1      51.409  27.916   8.019  1.00  0.00    +0.000 F 
ATOM     49  C35 UNL A   1      51.379  28.845  10.181  1.00  0.00    +0.000 C 
ATOM     50  F2  UNL A   1      50.119  28.416  10.345  1.00  0.00    +0.000 F 
ATOM     51  C36 UNL A   1      52.009  29.546  11.197  1.00  0.00    +0.000 C 
ATOM     52  F3  UNL A   1      51.367  29.780  12.350  1.00  0.00    +0.000 F 
ATOM     53  C37 UNL A   1      53.301  30.013  11.014  1.00  0.00    +0.000 C 
ATOM     54  F4  UNL A   1      53.917  30.683  12.000  1.00  0.00    +0.000 F 
ATOM     55  C38 UNL A   1      53.962  29.790   9.808  1.00  0.00    +0.000 C 
ATOM     56  F5  UNL A   1      55.206  30.269   9.656  1.00  0.00    +0.000 F 
ENDBRANCH   45   46
BRANCH   62   63
ATOM     65  F6  UNL A   1      56.087  33.129   2.476  1.00  0.00    +0.000 F 
ATOM     66  C46 UNL A   1      54.368  34.216   1.290  1.00  0.00    +0.000 C 
ATOM     67  F7  UNL A   1      55.159  35.285   1.126  1.00  0.00    +0.000 F 
ATOM     68  C47 UNL A   1      53.080  34.222   0.778  1.00  0.00    +0.000 C 
ATOM     69  F8  UNL A   1      52.631  35.289   0.102  1.00  0.00    +0.000 F 
ATOM     70  C48 UNL A   1      52.252  33.127   0.973  1.00  0.00    +0.000 C 
ATOM     71  F9  UNL A   1      51.011  33.127   0.468  1.00  0.00    +0.000 F 
ATOM     72  C49 UNL A   1      52.708  32.028   1.694  1.00  0.00    +0.000 C 
ATOM     73  F10 UNL A   1      51.882  30.987   1.878  1.00  0.00    +0.000 F 
ATOM     63  C44 UNL A   1      54.012  31.995   2.213  1.00  0.00    +0.000 C 
ATOM     64  C45 UNL A   1      54.838  33.106   1.986  1.00  0.00    +0.000 C 
ENDBRANCH   62   63
BRANCH   77   78
ATOM     78  C53 UNL A   1      58.123  26.698   0.326  1.00  0.00    +0.000 C 
ATOM     79  C54 UNL A   1      59.414  27.166   0.042  1.00  0.00    +0.000 C 
ATOM     80  F11 UNL A   1      60.041  27.968   0.914  1.00  0.00    +0.000 F 
ATOM     81  C55 UNL A   1      60.049  26.845  -1.156  1.00  0.00    +0.000 C 
ATOM     82  F12 UNL A   1      61.264  27.341  -1.421  1.00  0.00    +0.000 F 
ATOM     83  C56 UNL A   1      59.416  26.026  -2.080  1.00  0.00    +0.000 C 
ATOM     84  F13 UNL A   1      60.029  25.715  -3.230  1.00  0.00    +0.000 F 
ATOM     85  C57 UNL A   1      58.147  25.537  -1.813  1.00  0.00    +0.000 C 
ATOM     86  F14 UNL A   1      57.538  24.734  -2.697  1.00  0.00    +0.000 F 
ATOM     87  C58 UNL A   1      57.501  25.879  -0.626  1.00  0.00    +0.000 C 
ATOM     88  F15 UNL A   1      56.269  25.400  -0.400  1.00  0.00    +0.000 F 
ENDBRANCH   77   78
TORSDOF 28
ENDMDL
MODEL 8
REMARK VINA RESULT:      -7.4     18.269     27.304
ROOT
ATOM    138  H39 UNL A   1      39.792  28.190  26.736  1.00  0.00    +0.000 H 
ATOM    139  H40 UNL A   1      37.907  29.917  27.252  1.00  0.00    +0.000 H 
ATOM    140  H41 UNL A   1      40.210  29.449  30.661  1.00  0.00    +0.000 H 
ATOM    141  H42 UNL A   1      41.246  30.719  36.832  1.00  0.00    +0.000 H 
ATOM    142  H43 UNL A   1      43.086  29.044  36.317  1.00  0.00    +0.000 H 
ATOM    143  H44 UNL A   1      40.872  29.606  32.845  1.00  0.00    +0.000 H 
ATOM    144  H45 UNL A   1      37.324  32.973  33.981  1.00  0.00    +0.000 H 
ATOM    145  H46 UNL A   1      36.411  32.615  31.617  1.00  0.00    +0.000 H 
ATOM    146  H47 UNL A   1      43.944  26.298  29.561  1.00  0.00    +0.000 H 
ATOM    147  H48 UNL A   1      44.560  26.234  32.045  1.00  0.00    +0.000 H 
ATOM     41  C29 UNL A   1      43.052  28.048  33.646  1.00  0.00    +0.000 C 
ATOM     42  C30 UNL A   1      42.868  27.736  32.188  1.00  0.00    +0.000 C 
ATOM     43  N7  UNL A   1      41.988  28.215  31.344  1.00  0.00    +0.000 N 
ATOM     44  C31 UNL A   1      42.284  27.631  30.119  1.00  0.00    +0.000 C 
ATOM     45  C32 UNL A   1      41.622  27.754  28.943  1.00  0.00    +0.000 C 
ATOM     57  C39 UNL A   1      40.438  28.551  28.763  1.00  0.00    +0.000 C 
ATOM     58  C40 UNL A   1      39.651  28.682  27.632  1.00  0.00    +0.000 C 
ATOM     59  C41 UNL A   1      38.630  29.597  27.914  1.00  0.00    +0.000 C 
ATOM     60  C42 UNL A   1      38.755  30.000  29.235  1.00  0.00    +0.000 C 
ATOM     61  N8  UNL A   1      39.870  29.353  29.741  1.00  0.00    +0.000 N 
ATOM     62  C43 UNL A   1      37.921  30.908  29.978  1.00  0.00    +0.000 C 
ATOM     74  C50 UNL A   1      38.102  31.244  31.278  1.00  0.00    +0.000 C 
ATOM     75  N9  UNL A   1      39.082  30.818  32.164  1.00  0.00    +0.000 N 
ATOM     76  C51 UNL A   1      38.844  31.439  33.293  1.00  0.00    +0.000 C 
ATOM     77  C52 UNL A   1      39.574  31.337  34.604  1.00  0.00    +0.000 C 
ATOM     89  C59 UNL A   1      40.619  30.494  34.710  1.00  0.00    +0.000 C 
ATOM     90  C60 UNL A   1      41.407  30.267  35.918  1.00  0.00    +0.000 C 
ATOM     91  C61 UNL A   1      42.373  29.376  35.648  1.00  0.00    +0.000 C 
ATOM     92  C62 UNL A   1      42.255  28.949  34.253  1.00  0.00    +0.000 C 
ATOM     93  N10 UNL A   1      41.193  29.671  33.773  1.00  0.00    +0.000 N 
ATOM     94  C63 UNL A   1      37.693  32.350  33.245  1.00  0.00    +0.000 C 
ATOM     95  C64 UNL A   1      37.253  32.163  32.009  1.00  0.00    +0.000 C 
ATOM     96  C65 UNL A   1      43.454  26.804  30.315  1.00  0.00    +0.000 C 
ATOM     97  C66 UNL A   1      43.813  26.780  31.590  1.00  0.00    +0.000 C 
ENDROOT
BRANCH   41   40
ATOM     98  C67 UNL A   1      45.423  27.979  34.431  1.00  0.00    +0.000 C 
ATOM     99  C68 UNL A   1      46.465  27.352  35.109  1.00  0.00    +0.000 C 
ATOM     37  C25 UNL A   1      46.215  26.200  35.861  1.00  0.00    +0.000 C 
ATOM     38  C26 UNL A   1      44.948  25.614  35.847  1.00  0.00    +0.000 C 
ATOM     39  C27 UNL A   1      43.920  26.203  35.110  1.00  0.00    +0.000 C 
ATOM    136  H37 UNL A   1      44.772  24.747  36.380  1.00  0.00    +0.000 H 
ATOM     40  C28 UNL A   1      44.144  27.402  34.414  1.00  0.00    +0.000 C 
ATOM    137  H38 UNL A   1      42.991  25.756  35.077  1.00  0.00    +0.000 H 
ATOM    148  H49 UNL A   1      45.591  28.871  33.940  1.00  0.00    +0.000 H 
ATOM    149  H50 UNL A   1      47.422  27.737  35.055  1.00  0.00    +0.000 H 
BRANCH   37   35
ATOM     35  C24 UNL A   1      47.281  25.561  36.663  1.00  0.00    +0.000 C 
ATOM     36  O5  UNL A   1      47.124  25.392  37.863  1.00  0.00    +0.000 O 
BRANCH   35   34
ATOM     34  N6  UNL A   1      48.450  25.173  36.058  1.00  0.00    +0.000 N 
ATOM    135  H36 UNL A   1      49.118  25.885  35.934  1.00  0.00    +0.000 H 
BRANCH   34   33
ATOM     33  C23 UNL A   1      48.842  23.862  35.575  1.00  0.00    +0.000 C 
ATOM    133  H34 UNL A   1      49.474  23.984  34.720  1.00  0.00    +0.000 H 
ATOM    134  H35 UNL A   1      49.353  23.359  36.369  1.00  0.00    +0.000 H 
BRANCH   33   32
ATOM    131  H32 UNL A   1      46.778  23.642  35.164  1.00  0.00    +0.000 H 
ATOM    132  H33 UNL A   1      47.877  22.588  34.225  1.00  0.00    +0.000 H 
ATOM     32  C22 UNL A   1      47.642  23.011  35.179  1.00  0.00    +0.000 C 
BRANCH   32   31
ATOM    129  H30 UNL A   1      48.041  21.875  36.925  1.00  0.00    +0.000 H 
ATOM    130  H31 UNL A   1      46.327  21.934  36.403  1.00  0.00    +0.000 H 
ATOM     31  C21 UNL A   1      47.351  21.830  36.109  1.00  0.00    +0.000 C 
BRANCH   31   30
ATOM     30  C20 UNL A   1      47.466  20.444  35.469  1.00  0.00    +0.000 C 
ATOM    127  H28 UNL A   1      48.145  19.863  36.058  1.00  0.00    +0.000 H 
ATOM    128  H29 UNL A   1      46.473  20.047  35.444  1.00  0.00    +0.000 H 
BRANCH   30   29
ATOM    125  H26 UNL A   1      47.256  19.889  33.430  1.00  0.00    +0.000 H 
ATOM     29  C19 UNL A   1      47.964  20.430  34.023  1.00  0.00    +0.000 C 
ATOM    126  H27 UNL A   1      48.065  21.454  33.728  1.00  0.00    +0.000 H 
BRANCH   29   28
ATOM    124  H25 UNL A   1      49.515  19.716  32.773  1.00  0.00    +0.000 H 
ATOM    123  H24 UNL A   1      49.336  18.825  34.286  1.00  0.00    +0.000 H 
ATOM     28  C18 UNL A   1      49.333  19.790  33.824  1.00  0.00    +0.000 C 
BRANCH   28   27
ATOM    122  H23 UNL A   1      50.117  21.175  35.149  1.00  0.00    +0.000 H 
ATOM     27  N5  UNL A   1      50.392  20.590  34.406  1.00  0.00    +0.000 N 
BRANCH   27   25
ATOM     25  C17 UNL A   1      51.711  20.649  34.076  1.00  0.00    +0.000 C 
ATOM     26  O4  UNL A   1      52.270  19.583  33.795  1.00  0.00    +0.000 O 
BRANCH   25   22
ATOM    118  H19 UNL A   1      53.283  21.839  33.362  1.00  0.00    +0.000 H 
ATOM     22  C15 UNL A   1      52.519  21.952  34.103  1.00  0.00    +0.000 C 
BRANCH   22   21
ATOM    117  H18 UNL A   1      50.763  23.107  33.759  1.00  0.00    +0.000 H 
ATOM     21  N4  UNL A   1      51.744  23.124  33.684  1.00  0.00    +0.000 N 
BRANCH   21   19
ATOM     19  C14 UNL A   1      52.358  24.232  33.194  1.00  0.00    +0.000 C 
ATOM     20  O2  UNL A   1      53.262  24.045  32.376  1.00  0.00    +0.000 O 
BRANCH   19   16
ATOM    113  H14 UNL A   1      52.755  26.290  33.402  1.00  0.00    +0.000 H 
ATOM     16  C12 UNL A   1      51.933  25.648  33.637  1.00  0.00    +0.000 C 
BRANCH   16   15
ATOM     15  N3  UNL A   1      50.780  26.059  32.852  1.00  0.00    +0.000 N 
ATOM    112  H13 UNL A   1      49.982  25.484  32.863  1.00  0.00    +0.000 H 
BRANCH   15   13
ATOM     13  C11 UNL A   1      50.742  27.207  32.096  1.00  0.00    +0.000 C 
ATOM     14  O1  UNL A   1      50.773  28.276  32.711  1.00  0.00    +0.000 O 
BRANCH   13    2
ATOM      2  C1  UNL A   1      50.747  27.169  30.541  1.00  0.00    +0.000 C 
ATOM    103  H4  UNL A   1      51.313  28.018  30.222  1.00  0.00    +0.000 H 
BRANCH    2    1
ATOM      1  N1  UNL A   1      51.486  25.988  30.045  1.00  0.00    +0.000 N 
ATOM    100  H1  UNL A   1      51.778  26.151  29.081  1.00  0.00    +0.000 H 
ATOM    101  H2  UNL A   1      50.880  25.168  30.083  1.00  0.00    +0.000 H 
ATOM    102  H3  UNL A   1      52.307  25.832  30.628  1.00  0.00    +0.000 H 
ENDBRANCH    2    1
BRANCH    2    3
ATOM    105  H6  UNL A   1      48.987  28.242  30.499  1.00  0.00    +0.000 H 
ATOM      3  C2  UNL A   1      49.427  27.540  29.822  1.00  0.00    +0.000 C 
ATOM    104  H5  UNL A   1      49.699  27.874  28.843  1.00  0.00    +0.000 H 
BRANCH    3    4
ATOM      4  C3  UNL A   1      48.316  26.527  29.635  1.00  0.00    +0.000 C 
ATOM      5  C4  UNL A   1      47.483  25.938  30.572  1.00  0.00    +0.000 C 
ATOM      6  N2  UNL A   1      46.539  25.193  29.912  1.00  0.00    +0.000 N 
ATOM      7  C5  UNL A   1      46.823  25.150  28.571  1.00  0.00    +0.000 C 
ATOM      8  C6  UNL A   1      46.167  24.477  27.532  1.00  0.00    +0.000 C 
ATOM      9  C7  UNL A   1      46.740  24.539  26.259  1.00  0.00    +0.000 C 
ATOM    106  H7  UNL A   1      47.560  26.042  31.596  1.00  0.00    +0.000 H 
ATOM     11  C9  UNL A   1      48.518  25.972  27.076  1.00  0.00    +0.000 C 
ATOM     12  C10 UNL A   1      47.967  25.923  28.374  1.00  0.00    +0.000 C 
ATOM     10  C8  UNL A   1      47.908  25.262  26.035  1.00  0.00    +0.000 C 
ATOM    107  H8  UNL A   1      45.769  24.753  30.340  1.00  0.00    +0.000 H 
ATOM    111  H12 UNL A   1      49.366  26.530  26.894  1.00  0.00    +0.000 H 
ATOM    108  H9  UNL A   1      45.295  23.952  27.701  1.00  0.00    +0.000 H 
ATOM    110  H11 UNL A   1      48.329  25.274  25.093  1.00  0.00    +0.000 H 
ATOM    109  H10 UNL A   1      46.289  24.044  25.474  1.00  0.00    +0.000 H 
ENDBRANCH    3    4
ENDBRANCH    2    3
ENDBRANCH   13    2
ENDBRANCH   15   13
ENDBRANCH   16   15
BRANCH   16   17
ATOM     17  C13 UNL A   1      51.932  26.001  35.132  1.00  0.00    +0.000 C 
ATOM    114  H15 UNL A   1      51.359  25.252  35.636  1.00  0.00    +0.000 H 
ATOM    115  H16 UNL A   1      51.533  26.992  35.175  1.00  0.00    +0.000 H 
BRANCH   17   18
ATOM     18  S1  UNL A   1      53.543  26.115  35.978  1.00  0.00    +0.000 S 
ATOM    116  H17 UNL A   1      54.370  26.929  35.269  1.00  0.00    +0.000 H 
ENDBRANCH   17   18
ENDBRANCH   16   17
ENDBRANCH   19   16
ENDBRANCH   21   19
ENDBRANCH   22   21
BRANCH   22   23
ATOM    119  H20 UNL A   1      54.021  22.880  35.307  1.00  0.00    +0.000 H 
ATOM     23  C16 UNL A   1      53.239  22.163  35.445  1.00  0.00    +0.000 C 
ATOM    120  H21 UNL A   1      53.626  21.217  35.761  1.00  0.00    +0.000 H 
BRANCH   23   24
ATOM    121  H22 UNL A   1      52.746  23.417  36.890  1.00  0.00    +0.000 H 
ATOM     24  O3  UNL A   1      52.359  22.637  36.464  1.00  0.00    +0.000 O 
ENDBRANCH   23   24
ENDBRANCH   22   23
ENDBRANCH   25   22
ENDBRANCH   27   25
ENDBRANCH   28   27
ENDBRANCH   29   28
ENDBRANCH   30   29
ENDBRANCH   31   30
ENDBRANCH   32   31
ENDBRANCH   33   32
ENDBRANCH   34   33
ENDBRANCH   35   34
ENDBRANCH   37   35
ENDBRANCH   41   40
BRANCH   45   46
ATOM     46  C33 UNL A   1      42.162  27.004  27.761  1.00  0.00    +0.000 C 
ATOM     47  C34 UNL A   1      43.122  27.570  26.907  1.00  0.00    +0.000 C 
ATOM     48  F1  UNL A   1      43.547  28.826  27.107  1.00  0.00    +0.000 F 
ATOM     49  C35 UNL A   1      43.621  26.857  25.819  1.00  0.00    +0.000 C 
ATOM     50  F2  UNL A   1      44.502  27.436  24.991  1.00  0.00    +0.000 F 
ATOM     51  C36 UNL A   1      43.200  25.558  25.585  1.00  0.00    +0.000 C 
ATOM     52  F3  UNL A   1      43.686  24.872  24.541  1.00  0.00    +0.000 F 
ATOM     53  C37 UNL A   1      42.267  24.973  26.427  1.00  0.00    +0.000 C 
ATOM     54  F4  UNL A   1      41.866  23.712  26.208  1.00  0.00    +0.000 F 
ATOM     55  C38 UNL A   1      41.744  25.692  27.499  1.00  0.00    +0.000 C 
ATOM     56  F5  UNL A   1      40.831  25.102  28.287  1.00  0.00    +0.000 F 
ENDBRANCH   45   46
BRANCH   62   63
ATOM     65  F6  UNL A   1      35.588  29.444  29.192  1.00  0.00    +0.000 F 
ATOM     66  C46 UNL A   1      34.534  31.343  28.284  1.00  0.00    +0.000 C 
ATOM     67  F7  UNL A   1      33.485  30.589  27.927  1.00  0.00    +0.000 F 
ATOM     68  C47 UNL A   1      34.542  32.699  27.994  1.00  0.00    +0.000 C 
ATOM     69  F8  UNL A   1      33.493  33.260  27.377  1.00  0.00    +0.000 F 
ATOM     70  C48 UNL A   1      35.639  33.473  28.338  1.00  0.00    +0.000 C 
ATOM     71  F9  UNL A   1      35.643  34.786  28.071  1.00  0.00    +0.000 F 
ATOM     72  C49 UNL A   1      36.739  32.888  28.959  1.00  0.00    +0.000 C 
ATOM     73  F10 UNL A   1      37.793  33.658  29.268  1.00  0.00    +0.000 F 
ATOM     63  C44 UNL A   1      36.749  31.519  29.269  1.00  0.00    +0.000 C 
ATOM     64  C45 UNL A   1      35.619  30.759  28.930  1.00  0.00    +0.000 C 
ENDBRANCH   62   63
BRANCH   77   78
ATOM     78  C53 UNL A   1      39.137  32.127  35.784  1.00  0.00    +0.000 C 
ATOM     79  C54 UNL A   1      39.590  33.439  35.980  1.00  0.00    +0.000 C 
ATOM     80  F11 UNL A   1      40.445  33.988  35.104  1.00  0.00    +0.000 F 
ATOM     81  C55 UNL A   1      39.201  34.177  37.095  1.00  0.00    +0.000 C 
ATOM     82  F12 UNL A   1      39.684  35.413  37.280  1.00  0.00    +0.000 F 
ATOM     83  C56 UNL A   1      38.327  33.627  38.021  1.00  0.00    +0.000 C 
ATOM     84  F13 UNL A   1      37.950  34.338  39.092  1.00  0.00    +0.000 F 
ATOM     85  C57 UNL A   1      37.851  32.338  37.839  1.00  0.00    +0.000 C 
ATOM     86  F14 UNL A   1      36.995  31.808  38.725  1.00  0.00    +0.000 F 
ATOM     87  C58 UNL A   1      38.261  31.590  36.737  1.00  0.00    +0.000 C 
ATOM     88  F15 UNL A   1      37.793  30.341  36.593  1.00  0.00    +0.000 F 
ENDBRANCH   77   78
TORSDOF 28
ENDMDL
MODEL 9
REMARK VINA RESULT:      -7.4     17.975     26.101
ROOT
ATOM    138  H39 UNL A   1      39.933  28.162  26.678  1.00  0.00    +0.000 H 
ATOM    139  H40 UNL A   1      38.022  29.859  27.197  1.00  0.00    +0.000 H 
ATOM    140  H41 UNL A   1      40.332  29.421  30.605  1.00  0.00    +0.000 H 
ATOM    141  H42 UNL A   1      41.348  30.697  36.778  1.00  0.00    +0.000 H 
ATOM    142  H43 UNL A   1      43.215  29.052  36.261  1.00  0.00    +0.000 H 
ATOM    143  H44 UNL A   1      40.992  29.585  32.789  1.00  0.00    +0.000 H 
ATOM    144  H45 UNL A   1      37.392  32.894  33.932  1.00  0.00    +0.000 H 
ATOM    145  H46 UNL A   1      36.485  32.526  31.567  1.00  0.00    +0.000 H 
ATOM    146  H47 UNL A   1      44.115  26.331  29.500  1.00  0.00    +0.000 H 
ATOM    147  H48 UNL A   1      44.732  26.272  31.984  1.00  0.00    +0.000 H 
ATOM     41  C29 UNL A   1      43.195  28.060  33.589  1.00  0.00    +0.000 C 
ATOM     42  C30 UNL A   1      43.016  27.748  32.129  1.00  0.00    +0.000 C 
ATOM     43  N7  UNL A   1      42.130  28.213  31.286  1.00  0.00    +0.000 N 
ATOM     44  C31 UNL A   1      42.434  27.636  30.061  1.00  0.00    +0.000 C 
ATOM     45  C32 UNL A   1      41.770  27.751  28.885  1.00  0.00    +0.000 C 
ATOM     57  C39 UNL A   1      40.574  28.530  28.706  1.00  0.00    +0.000 C 
ATOM     58  C40 UNL A   1      39.785  28.650  27.575  1.00  0.00    +0.000 C 
ATOM     59  C41 UNL A   1      38.750  29.549  27.859  1.00  0.00    +0.000 C 
ATOM     60  C42 UNL A   1      38.869  29.952  29.180  1.00  0.00    +0.000 C 
ATOM     61  N8  UNL A   1      39.994  29.321  29.686  1.00  0.00    +0.000 N 
ATOM     62  C43 UNL A   1      38.021  30.846  29.925  1.00  0.00    +0.000 C 
ATOM     74  C50 UNL A   1      38.196  31.182  31.226  1.00  0.00    +0.000 C 
ATOM     75  N9  UNL A   1      39.183  30.770  32.110  1.00  0.00    +0.000 N 
ATOM     76  C51 UNL A   1      38.935  31.385  33.241  1.00  0.00    +0.000 C 
ATOM     77  C52 UNL A   1      39.667  31.292  34.552  1.00  0.00    +0.000 C 
ATOM     89  C59 UNL A   1      40.725  30.466  34.656  1.00  0.00    +0.000 C 
ATOM     90  C60 UNL A   1      41.516  30.249  35.864  1.00  0.00    +0.000 C 
ATOM     91  C61 UNL A   1      42.497  29.374  35.592  1.00  0.00    +0.000 C 
ATOM     92  C62 UNL A   1      42.385  28.947  34.197  1.00  0.00    +0.000 C 
ATOM     93  N10 UNL A   1      41.311  29.653  33.717  1.00  0.00    +0.000 N 
ATOM     94  C63 UNL A   1      37.770  32.279  33.195  1.00  0.00    +0.000 C 
ATOM     95  C64 UNL A   1      37.333  32.086  31.958  1.00  0.00    +0.000 C 
ATOM     96  C65 UNL A   1      43.616  26.828  30.255  1.00  0.00    +0.000 C 
ATOM     97  C66 UNL A   1      43.976  26.807  31.531  1.00  0.00    +0.000 C 
ENDROOT
BRANCH   41   40
ATOM     98  C67 UNL A   1      44.085  26.206  35.007  1.00  0.00    +0.000 C 
ATOM     99  C68 UNL A   1      45.099  25.632  35.769  1.00  0.00    +0.000 C 
ATOM     37  C25 UNL A   1      46.366  26.223  35.803  1.00  0.00    +0.000 C 
ATOM     38  C26 UNL A   1      46.588  27.445  35.163  1.00  0.00    +0.000 C 
ATOM     39  C27 UNL A   1      45.550  28.055  34.457  1.00  0.00    +0.000 C 
ATOM    136  H37 UNL A   1      47.515  27.894  35.213  1.00  0.00    +0.000 H 
ATOM     40  C28 UNL A   1      44.297  27.430  34.355  1.00  0.00    +0.000 C 
ATOM    137  H38 UNL A   1      45.705  28.971  34.008  1.00  0.00    +0.000 H 
ATOM    148  H49 UNL A   1      43.174  25.728  34.920  1.00  0.00    +0.000 H 
ATOM    149  H50 UNL A   1      44.916  24.772  36.310  1.00  0.00    +0.000 H 
BRANCH   37   35
ATOM     35  C24 UNL A   1      47.489  25.592  36.531  1.00  0.00    +0.000 C 
ATOM     36  O5  UNL A   1      47.653  25.826  37.719  1.00  0.00    +0.000 O 
BRANCH   35   34
ATOM     34  N6  UNL A   1      48.350  24.758  35.865  1.00  0.00    +0.000 N 
ATOM    135  H36 UNL A   1      47.987  23.872  35.636  1.00  0.00    +0.000 H 
BRANCH   34   33
ATOM     33  C23 UNL A   1      49.720  24.995  35.450  1.00  0.00    +0.000 C 
ATOM    133  H34 UNL A   1      50.179  25.667  36.144  1.00  0.00    +0.000 H 
ATOM    134  H35 UNL A   1      50.224  24.051  35.428  1.00  0.00    +0.000 H 
BRANCH   33   32
ATOM    131  H32 UNL A   1      48.812  25.865  33.748  1.00  0.00    +0.000 H 
ATOM    132  H33 UNL A   1      50.462  26.440  34.131  1.00  0.00    +0.000 H 
ATOM     32  C22 UNL A   1      49.803  25.600  34.054  1.00  0.00    +0.000 C 
BRANCH   32   31
ATOM    129  H30 UNL A   1      51.277  24.226  33.395  1.00  0.00    +0.000 H 
ATOM    130  H31 UNL A   1      49.630  23.987  32.730  1.00  0.00    +0.000 H 
ATOM     31  C21 UNL A   1      50.401  24.684  32.985  1.00  0.00    +0.000 C 
BRANCH   31   30
ATOM     30  C20 UNL A   1      50.797  25.371  31.675  1.00  0.00    +0.000 C 
ATOM    127  H28 UNL A   1      50.821  26.427  31.850  1.00  0.00    +0.000 H 
ATOM    128  H29 UNL A   1      51.746  24.960  31.401  1.00  0.00    +0.000 H 
BRANCH   30   29
ATOM    125  H26 UNL A   1      49.604  24.071  30.494  1.00  0.00    +0.000 H 
ATOM     29  C19 UNL A   1      49.864  25.109  30.491  1.00  0.00    +0.000 C 
ATOM    126  H27 UNL A   1      49.022  25.756  30.622  1.00  0.00    +0.000 H 
BRANCH   29   28
ATOM    124  H25 UNL A   1      50.854  24.546  28.708  1.00  0.00    +0.000 H 
ATOM    123  H24 UNL A   1      51.217  26.186  29.251  1.00  0.00    +0.000 H 
ATOM     28  C18 UNL A   1      50.454  25.445  29.126  1.00  0.00    +0.000 C 
BRANCH   28   27
ATOM    122  H23 UNL A   1      49.794  26.519  27.483  1.00  0.00    +0.000 H 
ATOM     27  N5  UNL A   1      49.451  25.957  28.215  1.00  0.00    +0.000 N 
BRANCH   27   25
ATOM     25  C17 UNL A   1      48.102  25.773  28.225  1.00  0.00    +0.000 C 
ATOM     26  O4  UNL A   1      47.676  24.699  27.785  1.00  0.00    +0.000 O 
BRANCH   25   22
ATOM    118  H19 UNL A   1      46.181  26.354  28.830  1.00  0.00    +0.000 H 
ATOM     22  C15 UNL A   1      47.117  26.852  28.690  1.00  0.00    +0.000 C 
BRANCH   22   21
ATOM    117  H18 UNL A   1      47.248  26.910  30.815  1.00  0.00    +0.000 H 
ATOM     21  N4  UNL A   1      47.454  27.420  29.999  1.00  0.00    +0.000 N 
BRANCH   21   19
ATOM     19  C14 UNL A   1      48.044  28.639  30.103  1.00  0.00    +0.000 C 
ATOM     20  O2  UNL A   1      49.155  28.760  29.581  1.00  0.00    +0.000 O 
BRANCH   19   16
ATOM    113  H14 UNL A   1      47.783  30.702  30.436  1.00  0.00    +0.000 H 
ATOM     16  C12 UNL A   1      47.348  29.808  30.831  1.00  0.00    +0.000 C 
BRANCH   16   15
ATOM     15  N3  UNL A   1      45.932  29.792  30.501  1.00  0.00    +0.000 N 
ATOM    112  H13 UNL A   1      45.398  29.019  30.792  1.00  0.00    +0.000 H 
BRANCH   15   13
ATOM     13  C11 UNL A   1      45.300  30.795  29.806  1.00  0.00    +0.000 C 
ATOM     14  O1  UNL A   1      45.506  30.841  28.590  1.00  0.00    +0.000 O 
BRANCH   13    2
ATOM      2  C1  UNL A   1      44.307  31.774  30.496  1.00  0.00    +0.000 C 
ATOM    103  H4  UNL A   1      43.414  31.760  29.906  1.00  0.00    +0.000 H 
BRANCH    2    1
ATOM      1  N1  UNL A   1      43.912  31.272  31.829  1.00  0.00    +0.000 N 
ATOM    100  H1  UNL A   1      44.729  31.257  32.441  1.00  0.00    +0.000 H 
ATOM    101  H2  UNL A   1      43.538  30.327  31.739  1.00  0.00    +0.000 H 
ATOM    102  H3  UNL A   1      43.201  31.884  32.226  1.00  0.00    +0.000 H 
ENDBRANCH    2    1
BRANCH    2    3
ATOM    105  H6  UNL A   1      44.409  33.648  31.349  1.00  0.00    +0.000 H 
ATOM      3  C2  UNL A   1      44.599  33.288  30.359  1.00  0.00    +0.000 C 
ATOM    104  H5  UNL A   1      45.590  33.370  29.966  1.00  0.00    +0.000 H 
BRANCH    3    4
ATOM      4  C3  UNL A   1      43.725  34.189  29.512  1.00  0.00    +0.000 C 
ATOM      5  C4  UNL A   1      42.781  35.128  29.894  1.00  0.00    +0.000 C 
ATOM      6  N2  UNL A   1      42.350  35.796  28.776  1.00  0.00    +0.000 N 
ATOM      7  C5  UNL A   1      42.870  35.217  27.648  1.00  0.00    +0.000 C 
ATOM      8  C6  UNL A   1      42.669  35.530  26.298  1.00  0.00    +0.000 C 
ATOM      9  C7  UNL A   1      43.265  34.701  25.345  1.00  0.00    +0.000 C 
ATOM    106  H7  UNL A   1      42.456  35.296  30.859  1.00  0.00    +0.000 H 
ATOM     11  C9  UNL A   1      44.280  33.350  27.086  1.00  0.00    +0.000 C 
ATOM     12  C10 UNL A   1      43.686  34.167  28.071  1.00  0.00    +0.000 C 
ATOM     10  C8  UNL A   1      44.046  33.615  25.731  1.00  0.00    +0.000 C 
ATOM    107  H8  UNL A   1      41.753  36.580  28.784  1.00  0.00    +0.000 H 
ATOM    111  H12 UNL A   1      44.885  32.561  27.362  1.00  0.00    +0.000 H 
ATOM    108  H9  UNL A   1      42.099  36.344  26.018  1.00  0.00    +0.000 H 
ATOM    110  H11 UNL A   1      44.456  32.999  25.011  1.00  0.00    +0.000 H 
ATOM    109  H10 UNL A   1      43.126  34.897  24.341  1.00  0.00    +0.000 H 
ENDBRANCH    3    4
ENDBRANCH    2    3
ENDBRANCH   13    2
ENDBRANCH   15   13
ENDBRANCH   16   15
BRANCH   16   17
ATOM     17  C13 UNL A   1      47.731  30.125  32.284  1.00  0.00    +0.000 C 
ATOM    114  H15 UNL A   1      47.685  29.208  32.833  1.00  0.00    +0.000 H 
ATOM    115  H16 UNL A   1      47.037  30.880  32.588  1.00  0.00    +0.000 H 
BRANCH   17   18
ATOM     18  S1  UNL A   1      49.372  30.860  32.589  1.00  0.00    +0.000 S 
ATOM    116  H17 UNL A   1      50.047  30.103  33.495  1.00  0.00    +0.000 H 
ENDBRANCH   17   18
ENDBRANCH   16   17
ENDBRANCH   19   16
ENDBRANCH   21   19
ENDBRANCH   22   21
BRANCH   22   23
ATOM    119  H20 UNL A   1      47.044  28.892  28.055  1.00  0.00    +0.000 H 
ATOM     23  C16 UNL A   1      46.883  27.929  27.617  1.00  0.00    +0.000 C 
ATOM    120  H21 UNL A   1      45.880  27.823  27.260  1.00  0.00    +0.000 H 
BRANCH   23   24
ATOM    121  H22 UNL A   1      47.917  28.649  26.096  1.00  0.00    +0.000 H 
ATOM     24  O3  UNL A   1      47.761  27.782  26.501  1.00  0.00    +0.000 O 
ENDBRANCH   23   24
ENDBRANCH   22   23
ENDBRANCH   25   22
ENDBRANCH   27   25
ENDBRANCH   28   27
ENDBRANCH   29   28
ENDBRANCH   30   29
ENDBRANCH   31   30
ENDBRANCH   32   31
ENDBRANCH   33   32
ENDBRANCH   34   33
ENDBRANCH   35   34
ENDBRANCH   37   35
ENDBRANCH   41   40
BRANCH   45   46
ATOM     46  C33 UNL A   1      42.322  27.011  27.702  1.00  0.00    +0.000 C 
ATOM     47  C34 UNL A   1      43.278  27.591  26.853  1.00  0.00    +0.000 C 
ATOM     48  F1  UNL A   1      43.689  28.851  27.058  1.00  0.00    +0.000 F 
ATOM     49  C35 UNL A   1      43.788  26.888  25.764  1.00  0.00    +0.000 C 
ATOM     50  F2  UNL A   1      44.665  27.479  24.940  1.00  0.00    +0.000 F 
ATOM     51  C36 UNL A   1      43.382  25.585  25.523  1.00  0.00    +0.000 C 
ATOM     52  F3  UNL A   1      43.878  24.909  24.479  1.00  0.00    +0.000 F 
ATOM     53  C37 UNL A   1      42.453  24.986  26.360  1.00  0.00    +0.000 C 
ATOM     54  F4  UNL A   1      42.066  23.722  26.136  1.00  0.00    +0.000 F 
ATOM     55  C38 UNL A   1      41.919  25.696  27.434  1.00  0.00    +0.000 C 
ATOM     56  F5  UNL A   1      41.010  25.094  28.216  1.00  0.00    +0.000 F 
ENDBRANCH   45   46
BRANCH   62   63
ATOM     65  F6  UNL A   1      35.675  29.364  29.211  1.00  0.00    +0.000 F 
ATOM     66  C46 UNL A   1      34.610  31.240  28.268  1.00  0.00    +0.000 C 
ATOM     67  F7  UNL A   1      33.555  30.478  27.946  1.00  0.00    +0.000 F 
ATOM     68  C47 UNL A   1      34.615  32.588  27.944  1.00  0.00    +0.000 C 
ATOM     69  F8  UNL A   1      33.558  33.134  27.327  1.00  0.00    +0.000 F 
ATOM     70  C48 UNL A   1      35.718  33.370  28.251  1.00  0.00    +0.000 C 
ATOM     71  F9  UNL A   1      35.719  34.675  27.950  1.00  0.00    +0.000 F 
ATOM     72  C49 UNL A   1      36.826  32.799  28.871  1.00  0.00    +0.000 C 
ATOM     73  F10 UNL A   1      37.885  33.576  29.146  1.00  0.00    +0.000 F 
ATOM     63  C44 UNL A   1      36.839  31.439  29.217  1.00  0.00    +0.000 C 
ATOM     64  C45 UNL A   1      35.704  30.672  28.914  1.00  0.00    +0.000 C 
ENDBRANCH   62   63
BRANCH   77   78
ATOM     78  C53 UNL A   1      39.218  32.074  35.733  1.00  0.00    +0.000 C 
ATOM     79  C54 UNL A   1      39.671  33.384  35.944  1.00  0.00    +0.000 C 
ATOM     80  F11 UNL A   1      40.536  33.938  35.083  1.00  0.00    +0.000 F 
ATOM     81  C55 UNL A   1      39.270  34.113  37.061  1.00  0.00    +0.000 C 
ATOM     82  F12 UNL A   1      39.753  35.347  37.262  1.00  0.00    +0.000 F 
ATOM     83  C56 UNL A   1      38.384  33.558  37.973  1.00  0.00    +0.000 C 
ATOM     84  F13 UNL A   1      37.997  34.261  39.045  1.00  0.00    +0.000 F 
ATOM     85  C57 UNL A   1      37.909  32.271  37.775  1.00  0.00    +0.000 C 
ATOM     86  F14 UNL A   1      37.042  31.735  38.646  1.00  0.00    +0.000 F 
ATOM     87  C58 UNL A   1      38.330  31.530  36.672  1.00  0.00    +0.000 C 
ATOM     88  F15 UNL A   1      37.861  30.284  36.512  1.00  0.00    +0.000 F 
ENDBRANCH   77   78
TORSDOF 28
ENDMDL
MODEL 10
REMARK VINA RESULT:      -7.4     42.428     47.301
ROOT
ATOM    138  H39 UNL A   1      12.440  20.568   9.085  1.00  0.00    +0.000 H 
ATOM    139  H40 UNL A   1      12.654  18.350  10.441  1.00  0.00    +0.000 H 
ATOM    140  H41 UNL A   1      15.933  18.661   7.931  1.00  0.00    +0.000 H 
ATOM    141  H42 UNL A   1      21.265  16.137   5.489  1.00  0.00    +0.000 H 
ATOM    142  H43 UNL A   1      21.055  18.305   4.180  1.00  0.00    +0.000 H 
ATOM    143  H44 UNL A   1      17.829  18.080   6.792  1.00  0.00    +0.000 H 
ATOM    144  H45 UNL A   1      18.402  13.796   9.349  1.00  0.00    +0.000 H 
ATOM    145  H46 UNL A   1      16.147  14.304  10.449  1.00  0.00    +0.000 H 
ATOM    146  H47 UNL A   1      15.597  23.034   5.513  1.00  0.00    +0.000 H 
ATOM    147  H48 UNL A   1      17.555  22.312   4.030  1.00  0.00    +0.000 H 
ATOM     41  C29 UNL A   1      18.742  19.842   4.823  1.00  0.00    +0.000 C 
ATOM     42  C30 UNL A   1      17.508  20.492   5.384  1.00  0.00    +0.000 C 
ATOM     43  N7  UNL A   1      16.716  20.077   6.339  1.00  0.00    +0.000 N 
ATOM     44  C31 UNL A   1      15.757  21.070   6.493  1.00  0.00    +0.000 C 
ATOM     45  C32 UNL A   1      14.679  21.082   7.313  1.00  0.00    +0.000 C 
ATOM     57  C39 UNL A   1      14.328  20.007   8.203  1.00  0.00    +0.000 C 
ATOM     58  C40 UNL A   1      13.215  19.890   9.017  1.00  0.00    +0.000 C 
ATOM     59  C41 UNL A   1      13.322  18.692   9.733  1.00  0.00    +0.000 C 
ATOM     60  C42 UNL A   1      14.479  18.042   9.330  1.00  0.00    +0.000 C 
ATOM     61  N8  UNL A   1      15.087  18.862   8.393  1.00  0.00    +0.000 N 
ATOM     62  C43 UNL A   1      14.991  16.769   9.767  1.00  0.00    +0.000 C 
ATOM     74  C50 UNL A   1      16.129  16.191   9.313  1.00  0.00    +0.000 C 
ATOM     75  N9  UNL A   1      17.031  16.659   8.367  1.00  0.00    +0.000 N 
ATOM     76  C51 UNL A   1      17.975  15.753   8.288  1.00  0.00    +0.000 C 
ATOM     77  C52 UNL A   1      19.192  15.725   7.405  1.00  0.00    +0.000 C 
ATOM     89  C59 UNL A   1      19.394  16.732   6.534  1.00  0.00    +0.000 C 
ATOM     90  C60 UNL A   1      20.510  16.832   5.597  1.00  0.00    +0.000 C 
ATOM     91  C61 UNL A   1      20.394  17.973   4.900  1.00  0.00    +0.000 C 
ATOM     92  C62 UNL A   1      19.179  18.672   5.324  1.00  0.00    +0.000 C 
ATOM     93  N10 UNL A   1      18.655  17.866   6.302  1.00  0.00    +0.000 N 
ATOM     94  C63 UNL A   1      17.790  14.613   9.196  1.00  0.00    +0.000 C 
ATOM     95  C64 UNL A   1      16.631  14.909   9.767  1.00  0.00    +0.000 C 
ATOM     96  C65 UNL A   1      16.095  22.132   5.573  1.00  0.00    +0.000 C 
ATOM     97  C66 UNL A   1      17.129  21.795   4.814  1.00  0.00    +0.000 C 
ENDROOT
BRANCH   41   40
ATOM     98  C67 UNL A   1      19.133  20.342   2.406  1.00  0.00    +0.000 C 
ATOM     99  C68 UNL A   1      19.881  20.926   1.387  1.00  0.00    +0.000 C 
ATOM     37  C25 UNL A   1      20.951  21.769   1.702  1.00  0.00    +0.000 C 
ATOM     38  C26 UNL A   1      21.341  21.941   3.032  1.00  0.00    +0.000 C 
ATOM     39  C27 UNL A   1      20.635  21.299   4.050  1.00  0.00    +0.000 C 
ATOM    136  H37 UNL A   1      22.149  22.541   3.261  1.00  0.00    +0.000 H 
ATOM     40  C28 UNL A   1      19.512  20.511   3.746  1.00  0.00    +0.000 C 
ATOM    137  H38 UNL A   1      20.939  21.403   5.030  1.00  0.00    +0.000 H 
ATOM    148  H49 UNL A   1      18.297  19.782   2.175  1.00  0.00    +0.000 H 
ATOM    149  H50 UNL A   1      19.646  20.737   0.400  1.00  0.00    +0.000 H 
BRANCH   37   35
ATOM     35  C24 UNL A   1      21.709  22.475   0.646  1.00  0.00    +0.000 C 
ATOM     36  O5  UNL A   1      22.289  21.837  -0.219  1.00  0.00    +0.000 O 
BRANCH   35   34
ATOM     34  N6  UNL A   1      21.770  23.846   0.651  1.00  0.00    +0.000 N 
ATOM    135  H36 UNL A   1      22.574  24.231   1.069  1.00  0.00    +0.000 H 
BRANCH   34   33
ATOM     33  C23 UNL A   1      20.820  24.808   0.128  1.00  0.00    +0.000 C 
ATOM    133  H34 UNL A   1      19.849  24.580   0.515  1.00  0.00    +0.000 H 
ATOM    134  H35 UNL A   1      21.141  25.784   0.429  1.00  0.00    +0.000 H 
BRANCH   33   32
ATOM    131  H32 UNL A   1      20.778  25.801  -1.740  1.00  0.00    +0.000 H 
ATOM    132  H33 UNL A   1      21.596  24.210  -1.720  1.00  0.00    +0.000 H 
ATOM     32  C22 UNL A   1      20.757  24.788  -1.394  1.00  0.00    +0.000 C 
BRANCH   32   31
ATOM    129  H30 UNL A   1      19.006  24.830  -2.589  1.00  0.00    +0.000 H 
ATOM    130  H31 UNL A   1      19.877  23.266  -2.531  1.00  0.00    +0.000 H 
ATOM     31  C21 UNL A   1      19.518  24.111  -1.983  1.00  0.00    +0.000 C 
BRANCH   31   30
ATOM     30  C20 UNL A   1      18.521  23.558  -0.962  1.00  0.00    +0.000 C 
ATOM    127  H28 UNL A   1      18.571  22.489  -0.997  1.00  0.00    +0.000 H 
ATOM    128  H29 UNL A   1      18.807  23.970  -0.017  1.00  0.00    +0.000 H 
BRANCH   30   29
ATOM    125  H26 UNL A   1      16.487  23.084  -1.345  1.00  0.00    +0.000 H 
ATOM     29  C19 UNL A   1      17.064  23.970  -1.179  1.00  0.00    +0.000 C 
ATOM    126  H27 UNL A   1      16.768  24.508  -0.303  1.00  0.00    +0.000 H 
BRANCH   29   28
ATOM    124  H25 UNL A   1      17.120  24.398  -3.251  1.00  0.00    +0.000 H 
ATOM    123  H24 UNL A   1      17.421  25.795  -2.214  1.00  0.00    +0.000 H 
ATOM     28  C18 UNL A   1      16.834  24.911  -2.356  1.00  0.00    +0.000 C 
BRANCH   28   27
ATOM    122  H23 UNL A   1      15.242  26.232  -2.280  1.00  0.00    +0.000 H 
ATOM     27  N5  UNL A   1      15.442  25.289  -2.482  1.00  0.00    +0.000 N 
BRANCH   27   25
ATOM     25  C17 UNL A   1      14.370  24.530  -2.838  1.00  0.00    +0.000 C 
ATOM     26  O4  UNL A   1      13.390  24.549  -2.086  1.00  0.00    +0.000 O 
BRANCH   25   22
ATOM    118  H19 UNL A   1      15.083  24.043  -4.749  1.00  0.00    +0.000 H 
ATOM     22  C15 UNL A   1      14.364  23.625  -4.077  1.00  0.00    +0.000 C 
BRANCH   22   21
ATOM    117  H18 UNL A   1      15.675  21.951  -4.214  1.00  0.00    +0.000 H 
ATOM     21  N4  UNL A   1      14.837  22.264  -3.802  1.00  0.00    +0.000 N 
BRANCH   21   19
ATOM     19  C14 UNL A   1      14.137  21.429  -2.992  1.00  0.00    +0.000 C 
ATOM     20  O2  UNL A   1      13.191  20.826  -3.507  1.00  0.00    +0.000 O 
BRANCH   19   16
ATOM    113  H14 UNL A   1      15.129  22.081  -1.252  1.00  0.00    +0.000 H 
ATOM     16  C12 UNL A   1      14.519  21.241  -1.509  1.00  0.00    +0.000 C 
BRANCH   16   15
ATOM     15  N3  UNL A   1      13.309  21.280  -0.703  1.00  0.00    +0.000 N 
ATOM    112  H13 UNL A   1      12.461  21.017  -1.127  1.00  0.00    +0.000 H 
BRANCH   15   13
ATOM     13  C11 UNL A   1      13.284  21.663   0.617  1.00  0.00    +0.000 C 
ATOM     14  O1  UNL A   1      13.358  22.874   0.843  1.00  0.00    +0.000 O 
BRANCH   13    2
ATOM      2  C1  UNL A   1      13.088  20.635   1.768  1.00  0.00    +0.000 C 
ATOM    103  H4  UNL A   1      12.326  21.037   2.402  1.00  0.00    +0.000 H 
BRANCH    2    1
ATOM      1  N1  UNL A   1      12.545  19.361   1.250  1.00  0.00    +0.000 N 
ATOM    100  H1  UNL A   1      12.694  19.315   0.242  1.00  0.00    +0.000 H 
ATOM    101  H2  UNL A   1      11.546  19.312   1.450  1.00  0.00    +0.000 H 
ATOM    102  H3  UNL A   1      13.022  18.581   1.701  1.00  0.00    +0.000 H 
ENDBRANCH    2    1
BRANCH    2    3
ATOM    105  H6  UNL A   1      14.994  21.117   2.390  1.00  0.00    +0.000 H 
ATOM      3  C2  UNL A   1      14.202  20.555   2.840  1.00  0.00    +0.000 C 
ATOM    104  H5  UNL A   1      13.772  20.914   3.750  1.00  0.00    +0.000 H 
BRANCH    3    4
ATOM      4  C3  UNL A   1      14.884  19.245   3.176  1.00  0.00    +0.000 C 
ATOM      5  C4  UNL A   1      15.975  18.632   2.582  1.00  0.00    +0.000 C 
ATOM      6  N2  UNL A   1      16.315  17.529   3.322  1.00  0.00    +0.000 N 
ATOM      7  C5  UNL A   1      15.380  17.309   4.301  1.00  0.00    +0.000 C 
ATOM      8  C6  UNL A   1      15.293  16.283   5.251  1.00  0.00    +0.000 C 
ATOM      9  C7  UNL A   1      14.166  16.261   6.077  1.00  0.00    +0.000 C 
ATOM    106  H7  UNL A   1      16.453  18.953   1.725  1.00  0.00    +0.000 H 
ATOM     11  C9  UNL A   1      13.311  18.284   5.047  1.00  0.00    +0.000 C 
ATOM     12  C10 UNL A   1      14.435  18.330   4.196  1.00  0.00    +0.000 C 
ATOM     10  C8  UNL A   1      13.179  17.236   5.966  1.00  0.00    +0.000 C 
ATOM    107  H8  UNL A   1      17.116  16.975   3.173  1.00  0.00    +0.000 H 
ATOM    111  H12 UNL A   1      12.590  19.019   4.993  1.00  0.00    +0.000 H 
ATOM    108  H9  UNL A   1      16.033  15.569   5.337  1.00  0.00    +0.000 H 
ATOM    110  H11 UNL A   1      12.342  17.186   6.567  1.00  0.00    +0.000 H 
ATOM    109  H10 UNL A   1      14.065  15.511   6.779  1.00  0.00    +0.000 H 
ENDBRANCH    3    4
ENDBRANCH    2    3
ENDBRANCH   13    2
ENDBRANCH   15   13
ENDBRANCH   16   15
BRANCH   16   17
ATOM     17  C13 UNL A   1      15.586  20.203  -1.132  1.00  0.00    +0.000 C 
ATOM    114  H15 UNL A   1      15.935  20.446  -0.151  1.00  0.00    +0.000 H 
ATOM    115  H16 UNL A   1      16.316  20.270  -1.911  1.00  0.00    +0.000 H 
BRANCH   17   18
ATOM     18  S1  UNL A   1      15.093  18.447  -1.115  1.00  0.00    +0.000 S 
ATOM    116  H17 UNL A   1      16.196  17.668  -0.962  1.00  0.00    +0.000 H 
ENDBRANCH   17   18
ENDBRANCH   16   17
ENDBRANCH   19   16
ENDBRANCH   21   19
ENDBRANCH   22   21
BRANCH   22   23
ATOM    119  H20 UNL A   1      12.257  23.279  -4.149  1.00  0.00    +0.000 H 
ATOM     23  C16 UNL A   1      13.013  23.648  -4.809  1.00  0.00    +0.000 C 
ATOM    120  H21 UNL A   1      13.103  23.036  -5.682  1.00  0.00    +0.000 H 
BRANCH   23   24
ATOM    121  H22 UNL A   1      11.815  25.219  -4.812  1.00  0.00    +0.000 H 
ATOM     24  O3  UNL A   1      12.649  24.961  -5.234  1.00  0.00    +0.000 O 
ENDBRANCH   23   24
ENDBRANCH   22   23
ENDBRANCH   25   22
ENDBRANCH   27   25
ENDBRANCH   28   27
ENDBRANCH   29   28
ENDBRANCH   30   29
ENDBRANCH   31   30
ENDBRANCH   32   31
ENDBRANCH   33   32
ENDBRANCH   34   33
ENDBRANCH   35   34
ENDBRANCH   37   35
ENDBRANCH   41   40
BRANCH   45   46
ATOM     46  C33 UNL A   1      13.795  22.294   7.280  1.00  0.00    +0.000 C 
ATOM     47  C34 UNL A   1      13.960  23.349   8.191  1.00  0.00    +0.000 C 
ATOM     48  F1  UNL A   1      14.893  23.272   9.152  1.00  0.00    +0.000 F 
ATOM     49  C35 UNL A   1      13.139  24.473   8.142  1.00  0.00    +0.000 C 
ATOM     50  F2  UNL A   1      13.285  25.446   9.052  1.00  0.00    +0.000 F 
ATOM     51  C36 UNL A   1      12.164  24.582   7.163  1.00  0.00    +0.000 C 
ATOM     52  F3  UNL A   1      11.380  25.666   7.113  1.00  0.00    +0.000 F 
ATOM     53  C37 UNL A   1      11.997  23.560   6.240  1.00  0.00    +0.000 C 
ATOM     54  F4  UNL A   1      11.062  23.668   5.285  1.00  0.00    +0.000 F 
ATOM     55  C38 UNL A   1      12.797  22.422   6.304  1.00  0.00    +0.000 C 
ATOM     56  F5  UNL A   1      12.600  21.444   5.406  1.00  0.00    +0.000 F 
ENDBRANCH   45   46
BRANCH   62   63
ATOM     65  F6  UNL A   1      15.445  16.942  12.590  1.00  0.00    +0.000 F 
ATOM     66  C46 UNL A   1      13.695  15.453  13.101  1.00  0.00    +0.000 C 
ATOM     67  F7  UNL A   1      13.980  15.568  14.406  1.00  0.00    +0.000 F 
ATOM     68  C47 UNL A   1      12.661  14.626  12.689  1.00  0.00    +0.000 C 
ATOM     69  F8  UNL A   1      11.934  13.957  13.594  1.00  0.00    +0.000 F 
ATOM     70  C48 UNL A   1      12.385  14.485  11.337  1.00  0.00    +0.000 C 
ATOM     71  F9  UNL A   1      11.379  13.697  10.938  1.00  0.00    +0.000 F 
ATOM     72  C49 UNL A   1      13.154  15.162  10.395  1.00  0.00    +0.000 C 
ATOM     73  F10 UNL A   1      12.873  14.997   9.093  1.00  0.00    +0.000 F 
ATOM     63  C44 UNL A   1      14.198  16.011  10.790  1.00  0.00    +0.000 C 
ATOM     64  C45 UNL A   1      14.447  16.154  12.163  1.00  0.00    +0.000 C 
ENDBRANCH   62   63
BRANCH   77   78
ATOM     78  C53 UNL A   1      20.150  14.591   7.461  1.00  0.00    +0.000 C 
ATOM     79  C54 UNL A   1      21.252  14.621   8.328  1.00  0.00    +0.000 C 
ATOM     80  F11 UNL A   1      21.461  15.694   9.106  1.00  0.00    +0.000 F 
ATOM     81  C55 UNL A   1      22.164  13.570   8.370  1.00  0.00    +0.000 C 
ATOM     82  F12 UNL A   1      23.233  13.644   9.175  1.00  0.00    +0.000 F 
ATOM     83  C56 UNL A   1      21.977  12.454   7.567  1.00  0.00    +0.000 C 
ATOM     84  F13 UNL A   1      22.853  11.442   7.609  1.00  0.00    +0.000 F 
ATOM     85  C57 UNL A   1      20.884  12.394   6.715  1.00  0.00    +0.000 C 
ATOM     86  F14 UNL A   1      20.692  11.312   5.948  1.00  0.00    +0.000 F 
ATOM     87  C58 UNL A   1      19.985  13.457   6.654  1.00  0.00    +0.000 C 
ATOM     88  F15 UNL A   1      18.944  13.376   5.813  1.00  0.00    +0.000 F 
ENDBRANCH   77   78
TORSDOF 28
ENDMDL
