MODEL 1
REMARK VINA RESULT:     -12.4      0.000      0.000
ROOT
ATOM     19  C15 UNL A   1      25.583  35.063  45.795  1.00  0.00    +0.000 C 
ATOM     20  C16 UNL A   1      25.263  36.258  46.647  1.00  0.00    +0.000 C 
ATOM     21  N3  UNL A   1      26.008  37.299  46.924  1.00  0.00    +0.000 N 
ATOM     22  C17 UNL A   1      25.231  38.117  47.733  1.00  0.00    +0.000 C 
ATOM     23  C18 UNL A   1      25.574  39.280  48.338  1.00  0.00    +0.000 C 
ATOM     35  C25 UNL A   1      26.865  39.906  48.224  1.00  0.00    +0.000 C 
ATOM     36  C26 UNL A   1      27.318  41.069  48.824  1.00  0.00    +0.000 C 
ATOM     37  C27 UNL A   1      28.632  41.298  48.399  1.00  0.00    +0.000 C 
ATOM     38  C28 UNL A   1      29.010  40.258  47.565  1.00  0.00    +0.000 C 
ATOM     39  N4  UNL A   1      27.913  39.417  47.458  1.00  0.00    +0.000 N 
ATOM     40  C29 UNL A   1      30.276  40.043  46.915  1.00  0.00    +0.000 C 
ATOM     52  C36 UNL A   1      30.566  38.998  46.102  1.00  0.00    +0.000 C 
ATOM     53  N5  UNL A   1      29.754  37.942  45.714  1.00  0.00    +0.000 N 
ATOM     54  C37 UNL A   1      30.477  37.211  44.902  1.00  0.00    +0.000 C 
ATOM     55  C38 UNL A   1      30.114  35.933  44.200  1.00  0.00    +0.000 C 
ATOM     67  C45 UNL A   1      28.904  35.384  44.414  1.00  0.00    +0.000 C 
ATOM     68  C46 UNL A   1      28.428  34.131  43.837  1.00  0.00    +0.000 C 
ATOM     69  C47 UNL A   1      27.176  33.899  44.267  1.00  0.00    +0.000 C 
ATOM     70  C48 UNL A   1      26.771  34.980  45.167  1.00  0.00    +0.000 C 
ATOM     71  N6  UNL A   1      27.855  35.821  45.186  1.00  0.00    +0.000 N 
ATOM     72  C49 UNL A   1      31.830  37.732  44.671  1.00  0.00    +0.000 C 
ATOM     73  C50 UNL A   1      31.847  38.798  45.458  1.00  0.00    +0.000 C 
ATOM     74  C51 UNL A   1      23.937  37.480  47.859  1.00  0.00    +0.000 C 
ATOM     75  C52 UNL A   1      23.923  36.302  47.253  1.00  0.00    +0.000 C 
ATOM    119  H21 UNL A   1      26.780  41.664  49.472  1.00  0.00    +0.000 H 
ATOM    120  H22 UNL A   1      29.219  42.104  48.661  1.00  0.00    +0.000 H 
ATOM    121  H23 UNL A   1      27.883  38.594  46.919  1.00  0.00    +0.000 H 
ATOM    122  H24 UNL A   1      28.965  33.522  43.202  1.00  0.00    +0.000 H 
ATOM    123  H25 UNL A   1      26.593  33.088  44.004  1.00  0.00    +0.000 H 
ATOM    124  H26 UNL A   1      27.879  36.658  45.704  1.00  0.00    +0.000 H 
ATOM    125  H27 UNL A   1      32.574  37.365  44.056  1.00  0.00    +0.000 H 
ATOM    126  H28 UNL A   1      32.669  39.407  45.595  1.00  0.00    +0.000 H 
ATOM    127  H29 UNL A   1      23.131  37.890  48.356  1.00  0.00    +0.000 H 
ATOM    128  H30 UNL A   1      23.169  35.598  47.215  1.00  0.00    +0.000 H 
ENDROOT
BRANCH   19   18
ATOM    129  H31 UNL A   1      25.126  32.919  47.361  1.00  0.00    +0.000 H 
ATOM    130  H32 UNL A   1      23.549  31.109  47.014  1.00  0.00    +0.000 H 
ATOM     76  C53 UNL A   1      24.499  32.932  46.541  1.00  0.00    +0.000 C 
ATOM     77  C54 UNL A   1      23.567  31.910  46.364  1.00  0.00    +0.000 C 
ATOM     15  C11 UNL A   1      22.655  31.971  45.304  1.00  0.00    +0.000 C 
ATOM     16  C12 UNL A   1      22.747  33.000  44.362  1.00  0.00    +0.000 C 
ATOM     17  C13 UNL A   1      23.719  33.989  44.507  1.00  0.00    +0.000 C 
ATOM     18  C14 UNL A   1      24.587  33.978  45.611  1.00  0.00    +0.000 C 
ATOM    117  H19 UNL A   1      22.097  33.028  43.561  1.00  0.00    +0.000 H 
ATOM    118  H20 UNL A   1      23.801  34.735  43.798  1.00  0.00    +0.000 H 
BRANCH   15   13
ATOM     13  C10 UNL A   1      21.607  30.940  45.124  1.00  0.00    +0.000 C 
ATOM     14  O2  UNL A   1      21.920  29.825  44.718  1.00  0.00    +0.000 O 
BRANCH   13   12
ATOM    116  H18 UNL A   1      19.904  30.717  46.141  1.00  0.00    +0.000 H 
ATOM     12  N2  UNL A   1      20.298  31.225  45.395  1.00  0.00    +0.000 N 
BRANCH   12   11
ATOM    114  H16 UNL A   1      18.429  32.079  45.182  1.00  0.00    +0.000 H 
ATOM     11  C9  UNL A   1      19.401  32.167  44.743  1.00  0.00    +0.000 C 
ATOM    115  H17 UNL A   1      19.800  33.151  44.878  1.00  0.00    +0.000 H 
BRANCH   11   10
ATOM    113  H15 UNL A   1      19.283  30.845  43.122  1.00  0.00    +0.000 H 
ATOM     10  C8  UNL A   1      19.287  31.909  43.242  1.00  0.00    +0.000 C 
ATOM    112  H14 UNL A   1      20.114  32.387  42.760  1.00  0.00    +0.000 H 
BRANCH   10    9
ATOM      9  C7  UNL A   1      17.998  32.419  42.595  1.00  0.00    +0.000 C 
ATOM    110  H12 UNL A   1      18.265  33.116  41.828  1.00  0.00    +0.000 H 
ATOM    111  H13 UNL A   1      17.487  31.554  42.224  1.00  0.00    +0.000 H 
BRANCH    9    8
ATOM    108  H10 UNL A   1      17.519  33.242  44.491  1.00  0.00    +0.000 H 
ATOM    109  H11 UNL A   1      16.755  34.037  43.082  1.00  0.00    +0.000 H 
ATOM      8  C6  UNL A   1      17.026  33.113  43.550  1.00  0.00    +0.000 C 
BRANCH    8    7
ATOM    106  H8  UNL A   1      15.127  32.930  44.492  1.00  0.00    +0.000 H 
ATOM    107  H9  UNL A   1      15.241  32.246  42.848  1.00  0.00    +0.000 H 
ATOM      7  C5  UNL A   1      15.714  32.360  43.801  1.00  0.00    +0.000 C 
BRANCH    7    6
ATOM    105  H7  UNL A   1      15.185  30.806  45.164  1.00  0.00    +0.000 H 
ATOM      6  C4  UNL A   1      15.892  30.948  44.373  1.00  0.00    +0.000 C 
ATOM    104  H6  UNL A   1      16.891  30.844  44.743  1.00  0.00    +0.000 H 
BRANCH    6    5
ATOM      5  N1  UNL A   1      15.656  29.947  43.352  1.00  0.00    +0.000 N 
ATOM    103  H5  UNL A   1      15.068  30.209  42.606  1.00  0.00    +0.000 H 
BRANCH    5    3
ATOM      3  C3  UNL A   1      16.164  28.676  43.316  1.00  0.00    +0.000 C 
ATOM      4  O1  UNL A   1      17.390  28.565  43.307  1.00  0.00    +0.000 O 
BRANCH    3    2
ATOM      2  C2  UNL A   1      15.192  27.483  43.261  1.00  0.00    +0.000 C 
ATOM    102  H4  UNL A   1      14.209  27.840  43.486  1.00  0.00    +0.000 H 
BRANCH    2    1
ATOM      1  C1  UNL A   1      15.632  26.454  44.316  1.00  0.00    +0.000 C 
ATOM     99  H1  UNL A   1      16.022  25.587  43.826  1.00  0.00    +0.000 H 
ATOM    100  H2  UNL A   1      14.790  26.178  44.916  1.00  0.00    +0.000 H 
ATOM    101  H3  UNL A   1      16.389  26.883  44.939  1.00  0.00    +0.000 H 
ENDBRANCH    2    1
BRANCH    2   78
ATOM    131  H33 UNL A   1      15.197  28.663  40.785  1.00  0.00    +0.000 H 
ATOM    132  H34 UNL A   1      15.193  27.644  38.585  1.00  0.00    +0.000 H 
ATOM    133  H35 UNL A   1      15.425  25.903  36.456  1.00  0.00    +0.000 H 
ATOM    134  H36 UNL A   1      14.675  21.836  35.746  1.00  0.00    +0.000 H 
ATOM    135  H37 UNL A   1      14.232  21.472  38.113  1.00  0.00    +0.000 H 
ATOM    138  H40 UNL A   1      14.616  24.908  42.561  1.00  0.00    +0.000 H 
ATOM     78  C55 UNL A   1      15.042  26.862  41.862  1.00  0.00    +0.000 C 
ATOM     79  C56 UNL A   1      15.119  27.637  40.701  1.00  0.00    +0.000 C 
ATOM     80  C57 UNL A   1      15.094  27.055  39.426  1.00  0.00    +0.000 C 
ATOM     81  C58 UNL A   1      14.936  25.661  39.297  1.00  0.00    +0.000 C 
ATOM     82  C59 UNL A   1      14.958  24.767  38.193  1.00  0.00    +0.000 C 
ATOM     83  C60 UNL A   1      15.191  24.963  36.815  1.00  0.00    +0.000 C 
ATOM     84  C61 UNL A   1      15.101  23.883  35.943  1.00  0.00    +0.000 C 
ATOM     85 Cl1  UNL A   1      15.401  24.121  34.264  1.00  0.00    +0.000 Cl
ATOM     86  C62 UNL A   1      14.756  22.622  36.410  1.00  0.00    +0.000 C 
ATOM     87  C63 UNL A   1      14.515  22.404  37.773  1.00  0.00    +0.000 C 
ATOM     88  C64 UNL A   1      14.668  23.481  38.673  1.00  0.00    +0.000 C 
ATOM     89  N7  UNL A   1      14.511  23.574  40.059  1.00  0.00    +0.000 N 
ATOM     97  C69 UNL A   1      14.717  24.905  40.441  1.00  0.00    +0.000 C 
ATOM     98  C70 UNL A   1      14.772  25.490  41.722  1.00  0.00    +0.000 C 
BRANCH   89   90
ATOM     90  C65 UNL A   1      14.184  22.539  40.974  1.00  0.00    +0.000 C 
ATOM     91  O3  UNL A   1      14.887  22.482  41.992  1.00  0.00    +0.000 O 
BRANCH   90   92
ATOM    136  H38 UNL A   1      11.869  22.325  39.217  1.00  0.00    +0.000 H 
ATOM    137  H39 UNL A   1      11.881  18.707  41.173  1.00  0.00    +0.000 H 
ATOM     92  C66 UNL A   1      13.143  21.541  40.769  1.00  0.00    +0.000 C 
ATOM     93  C67 UNL A   1      12.105  21.550  39.857  1.00  0.00    +0.000 C 
ATOM     94  O4  UNL A   1      11.445  20.358  39.945  1.00  0.00    +0.000 O 
ATOM     95  C68 UNL A   1      12.133  19.668  40.892  1.00  0.00    +0.000 C 
ATOM     96  N8  UNL A   1      13.142  20.315  41.420  1.00  0.00    +0.000 N 
ENDBRANCH   90   92
ENDBRANCH   89   90
ENDBRANCH    2   78
ENDBRANCH    3    2
ENDBRANCH    5    3
ENDBRANCH    6    5
ENDBRANCH    7    6
ENDBRANCH    8    7
ENDBRANCH    9    8
ENDBRANCH   10    9
ENDBRANCH   11   10
ENDBRANCH   12   11
ENDBRANCH   13   12
ENDBRANCH   15   13
ENDBRANCH   19   18
BRANCH   23   24
ATOM     33  C24 UNL A   1      23.683  40.920  48.665  1.00  0.00    +0.000 C 
ATOM     34  F5  UNL A   1      23.750  41.243  47.365  1.00  0.00    +0.000 F 
ATOM     24  C19 UNL A   1      24.539  39.944  49.198  1.00  0.00    +0.000 C 
ATOM     25  C20 UNL A   1      24.429  39.649  50.564  1.00  0.00    +0.000 C 
ATOM     26  F1  UNL A   1      25.218  38.715  51.119  1.00  0.00    +0.000 F 
ATOM     27  C21 UNL A   1      23.487  40.291  51.363  1.00  0.00    +0.000 C 
ATOM     28  F2  UNL A   1      23.375  39.965  52.659  1.00  0.00    +0.000 F 
ATOM     29  C22 UNL A   1      22.658  41.260  50.819  1.00  0.00    +0.000 C 
ATOM     30  F3  UNL A   1      21.757  41.885  51.591  1.00  0.00    +0.000 F 
ATOM     31  C23 UNL A   1      22.759  41.578  49.472  1.00  0.00    +0.000 C 
ATOM     32  F4  UNL A   1      21.965  42.522  48.948  1.00  0.00    +0.000 F 
ENDBRANCH   23   24
BRANCH   40   41
ATOM     41  C30 UNL A   1      31.372  41.038  47.162  1.00  0.00    +0.000 C 
ATOM     42  C31 UNL A   1      32.429  40.758  48.039  1.00  0.00    +0.000 C 
ATOM     43  F6  UNL A   1      32.462  39.595  48.708  1.00  0.00    +0.000 F 
ATOM     44  C32 UNL A   1      33.434  41.693  48.270  1.00  0.00    +0.000 C 
ATOM     45  F7  UNL A   1      34.406  41.427  49.152  1.00  0.00    +0.000 F 
ATOM     46  C33 UNL A   1      33.418  42.909  47.603  1.00  0.00    +0.000 C 
ATOM     47  F8  UNL A   1      34.385  43.810  47.826  1.00  0.00    +0.000 F 
ATOM     48  C34 UNL A   1      32.394  43.197  46.711  1.00  0.00    +0.000 C 
ATOM     49  F9  UNL A   1      32.383  44.367  46.060  1.00  0.00    +0.000 F 
ATOM     50  C35 UNL A   1      31.374  42.273  46.499  1.00  0.00    +0.000 C 
ATOM     51  F10 UNL A   1      30.388  42.586  45.645  1.00  0.00    +0.000 F 
ENDBRANCH   40   41
BRANCH   55   56
ATOM     65  C44 UNL A   1      31.849  34.171  43.739  1.00  0.00    +0.000 C 
ATOM     66  F15 UNL A   1      31.727  33.730  45.000  1.00  0.00    +0.000 F 
ATOM     56  C39 UNL A   1      31.083  35.258  43.298  1.00  0.00    +0.000 C 
ATOM     57  C40 UNL A   1      31.253  35.684  41.974  1.00  0.00    +0.000 C 
ATOM     58  F11 UNL A   1      30.527  36.708  41.501  1.00  0.00    +0.000 F 
ATOM     59  C41 UNL A   1      32.136  35.031  41.116  1.00  0.00    +0.000 C 
ATOM     60  F12 UNL A   1      32.245  35.428  39.841  1.00  0.00    +0.000 F 
ATOM     61  C42 UNL A   1      32.888  33.960  41.576  1.00  0.00    +0.000 C 
ATOM     62  F13 UNL A   1      33.738  33.333  40.752  1.00  0.00    +0.000 F 
ATOM     63  C43 UNL A   1      32.752  33.536  42.889  1.00  0.00    +0.000 C 
ATOM     64  F14 UNL A   1      33.487  32.510  43.341  1.00  0.00    +0.000 F 
ENDBRANCH   55   56
TORSDOF 19
ENDMDL
MODEL 2
REMARK VINA RESULT:     -12.4     40.470     47.041
ROOT
ATOM     19  C15 UNL A   1      53.379  19.806  11.774  1.00  0.00    +0.000 C 
ATOM     20  C16 UNL A   1      54.731  19.163  11.647  1.00  0.00    +0.000 C 
ATOM     21  N3  UNL A   1      55.723  19.149  12.502  1.00  0.00    +0.000 N 
ATOM     22  C17 UNL A   1      56.728  18.402  11.904  1.00  0.00    +0.000 C 
ATOM     23  C18 UNL A   1      57.980  18.153  12.358  1.00  0.00    +0.000 C 
ATOM     35  C25 UNL A   1      58.502  18.632  13.612  1.00  0.00    +0.000 C 
ATOM     36  C26 UNL A   1      59.767  18.458  14.145  1.00  0.00    +0.000 C 
ATOM     37  C27 UNL A   1      59.805  19.082  15.397  1.00  0.00    +0.000 C 
ATOM     38  C28 UNL A   1      58.575  19.676  15.627  1.00  0.00    +0.000 C 
ATOM     39  N4  UNL A   1      57.782  19.383  14.528  1.00  0.00    +0.000 N 
ATOM     40  C29 UNL A   1      58.153  20.456  16.760  1.00  0.00    +0.000 C 
ATOM     52  C36 UNL A   1      56.921  21.000  16.915  1.00  0.00    +0.000 C 
ATOM     53  N5  UNL A   1      55.825  20.935  16.067  1.00  0.00    +0.000 N 
ATOM     54  C37 UNL A   1      54.863  21.590  16.670  1.00  0.00    +0.000 C 
ATOM     55  C38 UNL A   1      53.461  21.860  16.201  1.00  0.00    +0.000 C 
ATOM     67  C45 UNL A   1      53.078  21.427  14.986  1.00  0.00    +0.000 C 
ATOM     68  C46 UNL A   1      51.768  21.649  14.382  1.00  0.00    +0.000 C 
ATOM     69  C47 UNL A   1      51.742  21.072  13.169  1.00  0.00    +0.000 C 
ATOM     70  C48 UNL A   1      53.044  20.458  12.904  1.00  0.00    +0.000 C 
ATOM     71  N6  UNL A   1      53.769  20.709  14.041  1.00  0.00    +0.000 N 
ATOM     72  C49 UNL A   1      55.240  22.134  17.982  1.00  0.00    +0.000 C 
ATOM     73  C50 UNL A   1      56.514  21.783  18.064  1.00  0.00    +0.000 C 
ATOM     74  C51 UNL A   1      56.209  17.932  10.637  1.00  0.00    +0.000 C 
ATOM     75  C52 UNL A   1      54.999  18.421  10.406  1.00  0.00    +0.000 C 
ATOM    119  H21 UNL A   1      60.549  17.956  13.696  1.00  0.00    +0.000 H 
ATOM    120  H22 UNL A   1      60.611  19.096  16.040  1.00  0.00    +0.000 H 
ATOM    121  H23 UNL A   1      56.846  19.668  14.415  1.00  0.00    +0.000 H 
ATOM    122  H24 UNL A   1      50.988  22.165  14.817  1.00  0.00    +0.000 H 
ATOM    123  H25 UNL A   1      50.934  21.064  12.527  1.00  0.00    +0.000 H 
ATOM    124  H26 UNL A   1      54.696  20.404  14.167  1.00  0.00    +0.000 H 
ATOM    125  H27 UNL A   1      54.662  22.654  18.662  1.00  0.00    +0.000 H 
ATOM    126  H28 UNL A   1      57.138  22.035  18.846  1.00  0.00    +0.000 H 
ATOM    127  H29 UNL A   1      56.715  17.299   9.998  1.00  0.00    +0.000 H 
ATOM    128  H30 UNL A   1      54.401  18.309   9.572  1.00  0.00    +0.000 H 
ENDROOT
BRANCH   19   18
ATOM    129  H31 UNL A   1      52.827  21.600   9.841  1.00  0.00    +0.000 H 
ATOM    130  H32 UNL A   1      51.154  21.461   8.091  1.00  0.00    +0.000 H 
ATOM     76  C53 UNL A   1      52.241  20.754   9.754  1.00  0.00    +0.000 C 
ATOM     77  C54 UNL A   1      51.306  20.661   8.724  1.00  0.00    +0.000 C 
ATOM     15  C11 UNL A   1      50.573  19.481   8.550  1.00  0.00    +0.000 C 
ATOM     16  C12 UNL A   1      50.700  18.437   9.471  1.00  0.00    +0.000 C 
ATOM     17  C13 UNL A   1      51.592  18.556  10.536  1.00  0.00    +0.000 C 
ATOM     18  C14 UNL A   1      52.388  19.705  10.673  1.00  0.00    +0.000 C 
ATOM    117  H19 UNL A   1      50.136  17.580   9.363  1.00  0.00    +0.000 H 
ATOM    118  H20 UNL A   1      51.668  17.795  11.229  1.00  0.00    +0.000 H 
BRANCH   15   13
ATOM     13  C10 UNL A   1      49.621  19.320   7.427  1.00  0.00    +0.000 C 
ATOM     14  O2  UNL A   1      49.008  20.297   7.008  1.00  0.00    +0.000 O 
BRANCH   13   12
ATOM    116  H18 UNL A   1      49.783  17.331   7.366  1.00  0.00    +0.000 H 
ATOM     12  N2  UNL A   1      49.413  18.092   6.863  1.00  0.00    +0.000 N 
BRANCH   12   11
ATOM    114  H16 UNL A   1      47.948  18.458   5.453  1.00  0.00    +0.000 H 
ATOM     11  C9  UNL A   1      48.727  17.745   5.627  1.00  0.00    +0.000 C 
ATOM    115  H17 UNL A   1      49.447  17.755   4.836  1.00  0.00    +0.000 H 
BRANCH   11   10
ATOM    113  H15 UNL A   1      48.666  15.808   6.422  1.00  0.00    +0.000 H 
ATOM     10  C8  UNL A   1      48.111  16.349   5.684  1.00  0.00    +0.000 C 
ATOM    112  H14 UNL A   1      48.174  15.919   4.706  1.00  0.00    +0.000 H 
BRANCH   10    9
ATOM      9  C7  UNL A   1      46.648  16.305   6.130  1.00  0.00    +0.000 C 
ATOM    110  H12 UNL A   1      46.587  15.703   7.013  1.00  0.00    +0.000 H 
ATOM    111  H13 UNL A   1      46.353  17.322   6.287  1.00  0.00    +0.000 H 
BRANCH    9    8
ATOM    108  H10 UNL A   1      46.215  15.050   4.475  1.00  0.00    +0.000 H 
ATOM    109  H11 UNL A   1      44.888  15.268   5.654  1.00  0.00    +0.000 H 
ATOM      8  C6  UNL A   1      45.675  15.733   5.097  1.00  0.00    +0.000 C 
BRANCH    8    7
ATOM    106  H8  UNL A   1      44.175  16.305   3.702  1.00  0.00    +0.000 H 
ATOM    107  H9  UNL A   1      44.713  17.584   4.824  1.00  0.00    +0.000 H 
ATOM      7  C5  UNL A   1      45.004  16.772   4.192  1.00  0.00    +0.000 C 
BRANCH    7    6
ATOM    105  H7  UNL A   1      45.523  17.128   2.153  1.00  0.00    +0.000 H 
ATOM      6  C4  UNL A   1      45.924  17.364   3.116  1.00  0.00    +0.000 C 
ATOM    104  H6  UNL A   1      46.904  16.947   3.224  1.00  0.00    +0.000 H 
BRANCH    6    5
ATOM      5  N1  UNL A   1      46.005  18.805   3.246  1.00  0.00    +0.000 N 
ATOM    103  H5  UNL A   1      46.899  19.182   3.414  1.00  0.00    +0.000 H 
BRANCH    5    3
ATOM      3  C3  UNL A   1      44.969  19.696   3.160  1.00  0.00    +0.000 C 
ATOM      4  O1  UNL A   1      44.767  20.415   4.140  1.00  0.00    +0.000 O 
BRANCH    3    2
ATOM      2  C2  UNL A   1      44.115  19.730   1.880  1.00  0.00    +0.000 C 
ATOM    102  H4  UNL A   1      44.340  18.858   1.303  1.00  0.00    +0.000 H 
BRANCH    2    1
ATOM      1  C1  UNL A   1      44.485  20.995   1.086  1.00  0.00    +0.000 C 
ATOM     99  H1  UNL A   1      44.778  20.720   0.094  1.00  0.00    +0.000 H 
ATOM    100  H2  UNL A   1      45.297  21.495   1.572  1.00  0.00    +0.000 H 
ATOM    101  H3  UNL A   1      43.640  21.648   1.041  1.00  0.00    +0.000 H 
ENDBRANCH    2    1
BRANCH    2   78
ATOM    131  H33 UNL A   1      42.726  18.197   3.680  1.00  0.00    +0.000 H 
ATOM    132  H34 UNL A   1      40.362  18.207   4.222  1.00  0.00    +0.000 H 
ATOM    133  H35 UNL A   1      37.703  18.881   4.531  1.00  0.00    +0.000 H 
ATOM    134  H36 UNL A   1      34.778  20.867   2.273  1.00  0.00    +0.000 H 
ATOM    135  H37 UNL A   1      36.449  21.524   0.628  1.00  0.00    +0.000 H 
ATOM    138  H40 UNL A   1      42.039  20.843   0.498  1.00  0.00    +0.000 H 
ATOM     78  C55 UNL A   1      42.602  19.618   2.133  1.00  0.00    +0.000 C 
ATOM     79  C56 UNL A   1      42.084  18.802   3.144  1.00  0.00    +0.000 C 
ATOM     80  C57 UNL A   1      40.716  18.787   3.446  1.00  0.00    +0.000 C 
ATOM     81  C58 UNL A   1      39.823  19.571   2.687  1.00  0.00    +0.000 C 
ATOM     82  C59 UNL A   1      38.432  19.847   2.782  1.00  0.00    +0.000 C 
ATOM     83  C60 UNL A   1      37.447  19.457   3.713  1.00  0.00    +0.000 C 
ATOM     84  C61 UNL A   1      36.127  19.852   3.522  1.00  0.00    +0.000 C 
ATOM     85 Cl1  UNL A   1      34.928  19.389   4.668  1.00  0.00    +0.000 Cl
ATOM     86  C62 UNL A   1      35.765  20.599   2.410  1.00  0.00    +0.000 C 
ATOM     87  C63 UNL A   1      36.725  20.993   1.468  1.00  0.00    +0.000 C 
ATOM     88  C64 UNL A   1      38.077  20.652   1.689  1.00  0.00    +0.000 C 
ATOM     89  N7  UNL A   1      39.239  20.903   0.955  1.00  0.00    +0.000 N 
ATOM     97  C69 UNL A   1      40.314  20.271   1.593  1.00  0.00    +0.000 C 
ATOM     98  C70 UNL A   1      41.694  20.307   1.311  1.00  0.00    +0.000 C 
BRANCH   89   90
ATOM     90  C65 UNL A   1      39.372  21.648  -0.247  1.00  0.00    +0.000 C 
ATOM     91  O3  UNL A   1      40.530  21.790  -0.664  1.00  0.00    +0.000 O 
BRANCH   90   92
ATOM    136  H38 UNL A   1      37.488  20.772  -2.290  1.00  0.00    +0.000 H 
ATOM    137  H39 UNL A   1      36.220  24.591  -1.442  1.00  0.00    +0.000 H 
ATOM     92  C66 UNL A   1      38.272  22.279  -0.964  1.00  0.00    +0.000 C 
ATOM     93  C67 UNL A   1      37.420  21.725  -1.899  1.00  0.00    +0.000 C 
ATOM     94  O4  UNL A   1      36.471  22.653  -2.219  1.00  0.00    +0.000 O 
ATOM     95  C68 UNL A   1      36.777  23.722  -1.439  1.00  0.00    +0.000 C 
ATOM     96  N8  UNL A   1      37.834  23.565  -0.681  1.00  0.00    +0.000 N 
ENDBRANCH   90   92
ENDBRANCH   89   90
ENDBRANCH    2   78
ENDBRANCH    3    2
ENDBRANCH    5    3
ENDBRANCH    6    5
ENDBRANCH    7    6
ENDBRANCH    8    7
ENDBRANCH    9    8
ENDBRANCH   10    9
ENDBRANCH   11   10
ENDBRANCH   12   11
ENDBRANCH   13   12
ENDBRANCH   15   13
ENDBRANCH   19   18
BRANCH   23   24
ATOM     33  C24 UNL A   1      59.647  17.946  10.473  1.00  0.00    +0.000 C 
ATOM     34  F5  UNL A   1      59.610  19.276  10.305  1.00  0.00    +0.000 F 
ATOM     24  C19 UNL A   1      58.885  17.337  11.481  1.00  0.00    +0.000 C 
ATOM     25  C20 UNL A   1      58.958  15.942  11.609  1.00  0.00    +0.000 C 
ATOM     26  F1  UNL A   1      58.257  15.315  12.566  1.00  0.00    +0.000 F 
ATOM     27  C21 UNL A   1      59.776  15.188  10.773  1.00  0.00    +0.000 C 
ATOM     28  F2  UNL A   1      59.858  13.860  10.939  1.00  0.00    +0.000 F 
ATOM     29  C22 UNL A   1      60.513  15.808   9.776  1.00  0.00    +0.000 C 
ATOM     30  F3  UNL A   1      61.293  15.079   8.965  1.00  0.00    +0.000 F 
ATOM     31  C23 UNL A   1      60.445  17.185   9.622  1.00  0.00    +0.000 C 
ATOM     32  F4  UNL A   1      61.148  17.784   8.651  1.00  0.00    +0.000 F 
ENDBRANCH   23   24
BRANCH   40   41
ATOM     41  C30 UNL A   1      59.149  20.705  17.854  1.00  0.00    +0.000 C 
ATOM     42  C31 UNL A   1      59.892  21.893  17.910  1.00  0.00    +0.000 C 
ATOM     43  F6  UNL A   1      59.748  22.825  16.955  1.00  0.00    +0.000 F 
ATOM     44  C32 UNL A   1      60.822  22.108  18.923  1.00  0.00    +0.000 C 
ATOM     45  F7  UNL A   1      61.559  23.227  18.927  1.00  0.00    +0.000 F 
ATOM     46  C33 UNL A   1      61.002  21.156  19.915  1.00  0.00    +0.000 C 
ATOM     47  F8  UNL A   1      61.899  21.363  20.889  1.00  0.00    +0.000 F 
ATOM     48  C34 UNL A   1      60.260  19.984  19.893  1.00  0.00    +0.000 C 
ATOM     49  F9  UNL A   1      60.426  19.068  20.857  1.00  0.00    +0.000 F 
ATOM     50  C35 UNL A   1      59.347  19.755  18.866  1.00  0.00    +0.000 C 
ATOM     51  F10 UNL A   1      58.657  18.605  18.861  1.00  0.00    +0.000 F 
ENDBRANCH   40   41
BRANCH   55   56
ATOM     65  C44 UNL A   1      51.717  21.975  18.010  1.00  0.00    +0.000 C 
ATOM     66  F15 UNL A   1      51.798  20.646  18.165  1.00  0.00    +0.000 F 
ATOM     56  C39 UNL A   1      52.508  22.620  17.050  1.00  0.00    +0.000 C 
ATOM     57  C40 UNL A   1      52.380  24.010  16.923  1.00  0.00    +0.000 C 
ATOM     58  F11 UNL A   1      53.131  24.674  16.032  1.00  0.00    +0.000 F 
ATOM     59  C41 UNL A   1      51.511  24.730  17.742  1.00  0.00    +0.000 C 
ATOM     60  F12 UNL A   1      51.442  26.063  17.633  1.00  0.00    +0.000 F 
ATOM     61  C42 UNL A   1      50.733  24.070  18.681  1.00  0.00    +0.000 C 
ATOM     62  F13 UNL A   1      49.899  24.761  19.468  1.00  0.00    +0.000 F 
ATOM     63  C43 UNL A   1      50.829  22.692  18.809  1.00  0.00    +0.000 C 
ATOM     64  F14 UNL A   1      50.069  22.048  19.707  1.00  0.00    +0.000 F 
ENDBRANCH   55   56
TORSDOF 19
ENDMDL
MODEL 3
REMARK VINA RESULT:     -11.9     44.409     49.878
ROOT
ATOM     19  C15 UNL A   1      28.879 -14.479  31.298  1.00  0.00    +0.000 C 
ATOM     20  C16 UNL A   1      28.602 -14.519  32.774  1.00  0.00    +0.000 C 
ATOM     21  N3  UNL A   1      27.612 -13.983  33.444  1.00  0.00    +0.000 N 
ATOM     22  C17 UNL A   1      27.817 -14.337  34.771  1.00  0.00    +0.000 C 
ATOM     23  C18 UNL A   1      27.104 -13.970  35.863  1.00  0.00    +0.000 C 
ATOM     35  C25 UNL A   1      25.943 -13.120  35.830  1.00  0.00    +0.000 C 
ATOM     36  C26 UNL A   1      25.171 -12.667  36.886  1.00  0.00    +0.000 C 
ATOM     37  C27 UNL A   1      24.132 -11.887  36.367  1.00  0.00    +0.000 C 
ATOM     38  C28 UNL A   1      24.277 -11.824  34.991  1.00  0.00    +0.000 C 
ATOM     39  N4  UNL A   1      25.386 -12.593  34.674  1.00  0.00    +0.000 N 
ATOM     40  C29 UNL A   1      23.470 -11.113  34.035  1.00  0.00    +0.000 C 
ATOM     52  C36 UNL A   1      23.675 -11.107  32.695  1.00  0.00    +0.000 C 
ATOM     53  N5  UNL A   1      24.656 -11.756  31.959  1.00  0.00    +0.000 N 
ATOM     54  C37 UNL A   1      24.415 -11.466  30.704  1.00  0.00    +0.000 C 
ATOM     55  C38 UNL A   1      25.173 -11.878  29.473  1.00  0.00    +0.000 C 
ATOM     67  C45 UNL A   1      26.286 -12.624  29.604  1.00  0.00    +0.000 C 
ATOM     68  C46 UNL A   1      27.145 -13.063  28.509  1.00  0.00    +0.000 C 
ATOM     69  C47 UNL A   1      28.157 -13.790  29.011  1.00  0.00    +0.000 C 
ATOM     70  C48 UNL A   1      28.028 -13.848  30.468  1.00  0.00    +0.000 C 
ATOM     71  N6  UNL A   1      26.883 -13.137  30.729  1.00  0.00    +0.000 N 
ATOM     72  C49 UNL A   1      23.240 -10.608  30.501  1.00  0.00    +0.000 C 
ATOM     73  C50 UNL A   1      22.851 -10.384  31.748  1.00  0.00    +0.000 C 
ATOM     74  C51 UNL A   1      28.994 -15.179  34.807  1.00  0.00    +0.000 C 
ATOM     75  C52 UNL A   1      29.547 -15.278  33.607  1.00  0.00    +0.000 C 
ATOM    119  H21 UNL A   1      25.335 -12.869  37.884  1.00  0.00    +0.000 H 
ATOM    120  H22 UNL A   1      23.383 -11.437  36.916  1.00  0.00    +0.000 H 
ATOM    121  H23 UNL A   1      25.729 -12.741  33.763  1.00  0.00    +0.000 H 
ATOM    122  H24 UNL A   1      26.998 -12.851  27.510  1.00  0.00    +0.000 H 
ATOM    123  H25 UNL A   1      28.906 -14.236  28.458  1.00  0.00    +0.000 H 
ATOM    124  H26 UNL A   1      26.525 -13.008  31.637  1.00  0.00    +0.000 H 
ATOM    125  H27 UNL A   1      22.825 -10.269  29.619  1.00  0.00    +0.000 H 
ATOM    126  H28 UNL A   1      22.063  -9.773  32.011  1.00  0.00    +0.000 H 
ATOM    127  H29 UNL A   1      29.353 -15.643  35.656  1.00  0.00    +0.000 H 
ATOM    128  H30 UNL A   1      30.417 -15.761  33.330  1.00  0.00    +0.000 H 
ENDROOT
BRANCH   19   18
ATOM    129  H31 UNL A   1      29.156 -17.057  30.569  1.00  0.00    +0.000 H 
ATOM    130  H32 UNL A   1      31.133 -18.179  29.721  1.00  0.00    +0.000 H 
ATOM     76  C53 UNL A   1      30.026 -16.523  30.416  1.00  0.00    +0.000 C 
ATOM     77  C54 UNL A   1      31.150 -17.162  29.893  1.00  0.00    +0.000 C 
ATOM     15  C11 UNL A   1      32.302 -16.422  29.601  1.00  0.00    +0.000 C 
ATOM     16  C12 UNL A   1      32.364 -15.065  29.932  1.00  0.00    +0.000 C 
ATOM     17  C13 UNL A   1      31.260 -14.441  30.511  1.00  0.00    +0.000 C 
ATOM     18  C14 UNL A   1      30.073 -15.158  30.735  1.00  0.00    +0.000 C 
ATOM    117  H19 UNL A   1      33.224 -14.527  29.748  1.00  0.00    +0.000 H 
ATOM    118  H20 UNL A   1      31.315 -13.445  30.777  1.00  0.00    +0.000 H 
BRANCH   15   13
ATOM     13  C10 UNL A   1      33.490 -17.053  28.981  1.00  0.00    +0.000 C 
ATOM     14  O2  UNL A   1      34.586 -16.941  29.524  1.00  0.00    +0.000 O 
BRANCH   13   12
ATOM    116  H18 UNL A   1      33.817 -18.627  27.798  1.00  0.00    +0.000 H 
ATOM     12  N2  UNL A   1      33.378 -17.746  27.809  1.00  0.00    +0.000 N 
BRANCH   12   11
ATOM    114  H16 UNL A   1      32.134 -18.209  26.225  1.00  0.00    +0.000 H 
ATOM     11  C9  UNL A   1      32.705 -17.373  26.573  1.00  0.00    +0.000 C 
ATOM    115  H17 UNL A   1      32.076 -16.532  26.780  1.00  0.00    +0.000 H 
BRANCH   11   10
ATOM    113  H15 UNL A   1      33.101 -16.722  24.622  1.00  0.00    +0.000 H 
ATOM     10  C8  UNL A   1      33.691 -16.964  25.482  1.00  0.00    +0.000 C 
ATOM    112  H14 UNL A   1      34.362 -17.781  25.318  1.00  0.00    +0.000 H 
BRANCH   10    9
ATOM      9  C7  UNL A   1      34.524 -15.719  25.796  1.00  0.00    +0.000 C 
ATOM    110  H12 UNL A   1      35.219 -15.971  26.570  1.00  0.00    +0.000 H 
ATOM    111  H13 UNL A   1      34.994 -15.435  24.878  1.00  0.00    +0.000 H 
BRANCH    9    8
ATOM    108  H10 UNL A   1      33.145 -14.792  27.115  1.00  0.00    +0.000 H 
ATOM    109  H11 UNL A   1      34.433 -13.733  26.466  1.00  0.00    +0.000 H 
ATOM      8  C6  UNL A   1      33.719 -14.503  26.259  1.00  0.00    +0.000 C 
BRANCH    8    7
ATOM    106  H8  UNL A   1      32.489 -14.710  24.536  1.00  0.00    +0.000 H 
ATOM    107  H9  UNL A   1      31.920 -13.535  25.752  1.00  0.00    +0.000 H 
ATOM      7  C5  UNL A   1      32.757 -13.926  25.214  1.00  0.00    +0.000 C 
BRANCH    7    6
ATOM    105  H7  UNL A   1      32.673 -11.925  24.479  1.00  0.00    +0.000 H 
ATOM      6  C4  UNL A   1      33.333 -12.762  24.397  1.00  0.00    +0.000 C 
ATOM    104  H6  UNL A   1      33.426 -13.064  23.374  1.00  0.00    +0.000 H 
BRANCH    6    5
ATOM      5  N1  UNL A   1      34.637 -12.379  24.899  1.00  0.00    +0.000 N 
ATOM    103  H5  UNL A   1      35.400 -12.933  24.613  1.00  0.00    +0.000 H 
BRANCH    5    3
ATOM      3  C3  UNL A   1      34.920 -11.328  25.730  1.00  0.00    +0.000 C 
ATOM      4  O1  UNL A   1      35.940 -11.415  26.414  1.00  0.00    +0.000 O 
BRANCH    3    2
ATOM      2  C2  UNL A   1      33.951 -10.132  25.781  1.00  0.00    +0.000 C 
ATOM    102  H4  UNL A   1      33.402 -10.106  24.863  1.00  0.00    +0.000 H 
BRANCH    2    1
ATOM      1  C1  UNL A   1      34.780  -8.846  25.934  1.00  0.00    +0.000 C 
ATOM     99  H1  UNL A   1      35.497  -8.787  25.141  1.00  0.00    +0.000 H 
ATOM    100  H2  UNL A   1      35.290  -8.861  26.875  1.00  0.00    +0.000 H 
ATOM    101  H3  UNL A   1      34.132  -7.996  25.893  1.00  0.00    +0.000 H 
ENDBRANCH    2    1
BRANCH    2   78
ATOM    131  H33 UNL A   1      33.619 -11.997  27.764  1.00  0.00    +0.000 H 
ATOM    132  H34 UNL A   1      32.024 -12.046  29.591  1.00  0.00    +0.000 H 
ATOM    133  H35 UNL A   1      30.162 -11.388  31.519  1.00  0.00    +0.000 H 
ATOM    134  H36 UNL A   1      26.824  -8.860  31.799  1.00  0.00    +0.000 H 
ATOM    135  H37 UNL A   1      27.336  -7.891  29.624  1.00  0.00    +0.000 H 
ATOM    138  H40 UNL A   1      31.663  -8.678  26.104  1.00  0.00    +0.000 H 
ATOM     78  C55 UNL A   1      32.858 -10.257  26.855  1.00  0.00    +0.000 C 
ATOM     79  C56 UNL A   1      32.890 -11.268  27.822  1.00  0.00    +0.000 C 
ATOM     80  C57 UNL A   1      31.956 -11.314  28.867  1.00  0.00    +0.000 C 
ATOM     81  C58 UNL A   1      30.926 -10.354  28.926  1.00  0.00    +0.000 C 
ATOM     82  C59 UNL A   1      29.902 -10.069  29.870  1.00  0.00    +0.000 C 
ATOM     83  C60 UNL A   1      29.578 -10.634  31.121  1.00  0.00    +0.000 C 
ATOM     84  C61 UNL A   1      28.466 -10.169  31.817  1.00  0.00    +0.000 C 
ATOM     85 Cl1  UNL A   1      28.081 -10.848  33.352  1.00  0.00    +0.000 Cl
ATOM     86  C62 UNL A   1      27.657  -9.179  31.278  1.00  0.00    +0.000 C 
ATOM     87  C63 UNL A   1      27.955  -8.607  30.034  1.00  0.00    +0.000 C 
ATOM     88  C64 UNL A   1      29.118  -9.027  29.353  1.00  0.00    +0.000 C 
ATOM     89  N7  UNL A   1      29.676  -8.647  28.129  1.00  0.00    +0.000 N 
ATOM     97  C69 UNL A   1      30.808  -9.436  27.891  1.00  0.00    +0.000 C 
ATOM     98  C70 UNL A   1      31.765  -9.375  26.859  1.00  0.00    +0.000 C 
BRANCH   89   90
ATOM     90  C65 UNL A   1      29.213  -7.652  27.227  1.00  0.00    +0.000 C 
ATOM     91  O3  UNL A   1      29.314  -6.483  27.622  1.00  0.00    +0.000 O 
BRANCH   90   92
ATOM    136  H38 UNL A   1      28.360 -10.057  25.821  1.00  0.00    +0.000 H 
ATOM    137  H39 UNL A   1      27.157  -7.039  23.300  1.00  0.00    +0.000 H 
ATOM     92  C66 UNL A   1      28.596  -7.918  25.934  1.00  0.00    +0.000 C 
ATOM     93  C67 UNL A   1      28.203  -9.129  25.398  1.00  0.00    +0.000 C 
ATOM     94  O4  UNL A   1      27.569  -8.888  24.213  1.00  0.00    +0.000 O 
ATOM     95  C68 UNL A   1      27.584  -7.535  24.098  1.00  0.00    +0.000 C 
ATOM     96  N8  UNL A   1      28.182  -6.906  25.080  1.00  0.00    +0.000 N 
ENDBRANCH   90   92
ENDBRANCH   89   90
ENDBRANCH    2   78
ENDBRANCH    3    2
ENDBRANCH    5    3
ENDBRANCH    6    5
ENDBRANCH    7    6
ENDBRANCH    8    7
ENDBRANCH    9    8
ENDBRANCH   10    9
ENDBRANCH   11   10
ENDBRANCH   12   11
ENDBRANCH   13   12
ENDBRANCH   15   13
ENDBRANCH   19   18
BRANCH   23   24
ATOM     33  C24 UNL A   1      26.958 -15.576  37.806  1.00  0.00    +0.000 C 
ATOM     34  F5  UNL A   1      25.964 -16.225  37.182  1.00  0.00    +0.000 F 
ATOM     24  C19 UNL A   1      27.574 -14.472  37.197  1.00  0.00    +0.000 C 
ATOM     25  C20 UNL A   1      28.605 -13.827  37.896  1.00  0.00    +0.000 C 
ATOM     26  F1  UNL A   1      29.234 -12.774  37.351  1.00  0.00    +0.000 F 
ATOM     27  C21 UNL A   1      29.017 -14.280  39.146  1.00  0.00    +0.000 C 
ATOM     28  F2  UNL A   1      30.029 -13.670  39.779  1.00  0.00    +0.000 F 
ATOM     29  C22 UNL A   1      28.387 -15.365  39.734  1.00  0.00    +0.000 C 
ATOM     30  F3  UNL A   1      28.777 -15.795  40.943  1.00  0.00    +0.000 F 
ATOM     31  C23 UNL A   1      27.355 -16.010  39.068  1.00  0.00    +0.000 C 
ATOM     32  F4  UNL A   1      26.739 -17.053  39.641  1.00  0.00    +0.000 F 
ENDBRANCH   23   24
BRANCH   40   41
ATOM     41  C30 UNL A   1      22.320 -10.299  34.551  1.00  0.00    +0.000 C 
ATOM     42  C31 UNL A   1      21.004 -10.783  34.505  1.00  0.00    +0.000 C 
ATOM     43  F6  UNL A   1      20.743 -11.981  33.961  1.00  0.00    +0.000 F 
ATOM     44  C32 UNL A   1      19.943 -10.014  34.974  1.00  0.00    +0.000 C 
ATOM     45  F7  UNL A   1      18.688 -10.473  34.873  1.00  0.00    +0.000 F 
ATOM     46  C33 UNL A   1      20.181  -8.765  35.529  1.00  0.00    +0.000 C 
ATOM     47  F8  UNL A   1      19.159  -8.025  35.979  1.00  0.00    +0.000 F 
ATOM     48  C34 UNL A   1      21.478  -8.278  35.606  1.00  0.00    +0.000 C 
ATOM     49  F9  UNL A   1      21.709  -7.076  36.150  1.00  0.00    +0.000 F 
ATOM     50  C35 UNL A   1      22.538  -9.034  35.113  1.00  0.00    +0.000 C 
ATOM     51  F10 UNL A   1      23.779  -8.530  35.186  1.00  0.00    +0.000 F 
ENDBRANCH   40   41
BRANCH   55   56
ATOM     65  C44 UNL A   1      23.922 -12.280  27.328  1.00  0.00    +0.000 C 
ATOM     66  F15 UNL A   1      23.560 -13.491  27.773  1.00  0.00    +0.000 F 
ATOM     56  C39 UNL A   1      24.724 -11.450  28.123  1.00  0.00    +0.000 C 
ATOM     57  C40 UNL A   1      25.081 -10.196  27.608  1.00  0.00    +0.000 C 
ATOM     58  F11 UNL A   1      25.830  -9.359  28.342  1.00  0.00    +0.000 F 
ATOM     59  C41 UNL A   1      24.633  -9.779  26.357  1.00  0.00    +0.000 C 
ATOM     60  F12 UNL A   1      24.949  -8.557  25.908  1.00  0.00    +0.000 F 
ATOM     61  C42 UNL A   1      23.844 -10.619  25.584  1.00  0.00    +0.000 C 
ATOM     62  F13 UNL A   1      23.414 -10.218  24.382  1.00  0.00    +0.000 F 
ATOM     63  C43 UNL A   1      23.497 -11.872  26.065  1.00  0.00    +0.000 C 
ATOM     64  F14 UNL A   1      22.747 -12.693  25.317  1.00  0.00    +0.000 F 
ENDBRANCH   55   56
TORSDOF 19
ENDMDL
MODEL 4
REMARK VINA RESULT:     -11.8     44.535     49.535
ROOT
ATOM     19  C15 UNL A   1      29.078 -14.090  31.108  1.00  0.00    +0.000 C 
ATOM     20  C16 UNL A   1      28.795 -14.231  32.576  1.00  0.00    +0.000 C 
ATOM     21  N3  UNL A   1      27.784 -13.771  33.271  1.00  0.00    +0.000 N 
ATOM     22  C17 UNL A   1      27.994 -14.200  34.575  1.00  0.00    +0.000 C 
ATOM     23  C18 UNL A   1      27.264 -13.925  35.682  1.00  0.00    +0.000 C 
ATOM     35  C25 UNL A   1      26.074 -13.114  35.693  1.00  0.00    +0.000 C 
ATOM     36  C26 UNL A   1      25.283 -12.754  36.770  1.00  0.00    +0.000 C 
ATOM     37  C27 UNL A   1      24.220 -11.978  36.293  1.00  0.00    +0.000 C 
ATOM     38  C28 UNL A   1      24.371 -11.824  34.924  1.00  0.00    +0.000 C 
ATOM     39  N4  UNL A   1      25.507 -12.535  34.568  1.00  0.00    +0.000 N 
ATOM     40  C29 UNL A   1      23.545 -11.082  34.009  1.00  0.00    +0.000 C 
ATOM     52  C36 UNL A   1      23.757 -10.986  32.673  1.00  0.00    +0.000 C 
ATOM     53  N5  UNL A   1      24.763 -11.555  31.905  1.00  0.00    +0.000 N 
ATOM     54  C37 UNL A   1      24.519 -11.195  30.669  1.00  0.00    +0.000 C 
ATOM     55  C38 UNL A   1      25.297 -11.504  29.420  1.00  0.00    +0.000 C 
ATOM     67  C45 UNL A   1      26.434 -12.219  29.513  1.00  0.00    +0.000 C 
ATOM     68  C46 UNL A   1      27.313 -12.561  28.399  1.00  0.00    +0.000 C 
ATOM     69  C47 UNL A   1      28.346 -13.283  28.863  1.00  0.00    +0.000 C 
ATOM     70  C48 UNL A   1      28.211 -13.437  30.312  1.00  0.00    +0.000 C 
ATOM     71  N6  UNL A   1      27.041 -12.782  30.608  1.00  0.00    +0.000 N 
ATOM     72  C49 UNL A   1      23.317 -10.366  30.511  1.00  0.00    +0.000 C 
ATOM     73  C50 UNL A   1      22.915 -10.233  31.767  1.00  0.00    +0.000 C 
ATOM     74  C51 UNL A   1      29.198 -15.004  34.566  1.00  0.00    +0.000 C 
ATOM     75  C52 UNL A   1      29.761 -15.009  33.367  1.00  0.00    +0.000 C 
ATOM    119  H21 UNL A   1      25.448 -13.013  37.755  1.00  0.00    +0.000 H 
ATOM    120  H22 UNL A   1      23.454 -11.588  36.863  1.00  0.00    +0.000 H 
ATOM    121  H23 UNL A   1      25.859 -12.615  33.652  1.00  0.00    +0.000 H 
ATOM    122  H24 UNL A   1      27.164 -12.291  27.414  1.00  0.00    +0.000 H 
ATOM    123  H25 UNL A   1      29.112 -13.669  28.288  1.00  0.00    +0.000 H 
ATOM    124  H26 UNL A   1      26.674 -12.722  31.520  1.00  0.00    +0.000 H 
ATOM    125  H27 UNL A   1      22.896  -9.986  29.649  1.00  0.00    +0.000 H 
ATOM    126  H28 UNL A   1      22.105  -9.665  32.061  1.00  0.00    +0.000 H 
ATOM    127  H29 UNL A   1      29.568 -15.507  35.388  1.00  0.00    +0.000 H 
ATOM    128  H30 UNL A   1      30.647 -15.445  33.067  1.00  0.00    +0.000 H 
ENDROOT
BRANCH   19   18
ATOM    129  H31 UNL A   1      29.370 -16.516  29.974  1.00  0.00    +0.000 H 
ATOM    130  H32 UNL A   1      31.382 -17.525  29.072  1.00  0.00    +0.000 H 
ATOM     76  C53 UNL A   1      30.254 -15.983  29.966  1.00  0.00    +0.000 C 
ATOM     77  C54 UNL A   1      31.401 -16.552  29.412  1.00  0.00    +0.000 C 
ATOM     15  C11 UNL A   1      32.578 -15.800  29.319  1.00  0.00    +0.000 C 
ATOM     16  C12 UNL A   1      32.636 -14.519  29.877  1.00  0.00    +0.000 C 
ATOM     17  C13 UNL A   1      31.505 -13.975  30.484  1.00  0.00    +0.000 C 
ATOM     18  C14 UNL A   1      30.297 -14.693  30.512  1.00  0.00    +0.000 C 
ATOM    117  H19 UNL A   1      33.513 -13.977  29.838  1.00  0.00    +0.000 H 
ATOM    118  H20 UNL A   1      31.555 -13.040  30.917  1.00  0.00    +0.000 H 
BRANCH   15   13
ATOM     13  C10 UNL A   1      33.796 -16.345  28.676  1.00  0.00    +0.000 C 
ATOM     14  O2  UNL A   1      34.482 -17.167  29.278  1.00  0.00    +0.000 O 
BRANCH   13   12
ATOM    116  H18 UNL A   1      35.086 -16.166  27.163  1.00  0.00    +0.000 H 
ATOM     12  N2  UNL A   1      34.166 -15.934  27.427  1.00  0.00    +0.000 N 
BRANCH   12   11
ATOM    114  H16 UNL A   1      33.639 -15.588  25.459  1.00  0.00    +0.000 H 
ATOM     11  C9  UNL A   1      33.400 -15.202  26.428  1.00  0.00    +0.000 C 
ATOM    115  H17 UNL A   1      32.361 -15.328  26.651  1.00  0.00    +0.000 H 
BRANCH   11   10
ATOM    113  H15 UNL A   1      34.413 -13.535  25.665  1.00  0.00    +0.000 H 
ATOM     10  C8  UNL A   1      33.707 -13.707  26.451  1.00  0.00    +0.000 C 
ATOM    112  H14 UNL A   1      34.085 -13.460  27.421  1.00  0.00    +0.000 H 
BRANCH   10    9
ATOM      9  C7  UNL A   1      32.511 -12.797  26.160  1.00  0.00    +0.000 C 
ATOM    110  H12 UNL A   1      32.017 -13.167  25.286  1.00  0.00    +0.000 H 
ATOM    111  H13 UNL A   1      31.898 -12.820  27.038  1.00  0.00    +0.000 H 
BRANCH    9    8
ATOM    108  H10 UNL A   1      33.244 -11.233  24.928  1.00  0.00    +0.000 H 
ATOM    109  H11 UNL A   1      31.958 -10.775  26.084  1.00  0.00    +0.000 H 
ATOM      8  C6  UNL A   1      32.861 -11.327  25.923  1.00  0.00    +0.000 C 
BRANCH    8    7
ATOM    106  H8  UNL A   1      33.690 -11.116  27.870  1.00  0.00    +0.000 H 
ATOM    107  H9  UNL A   1      34.858 -11.041  26.523  1.00  0.00    +0.000 H 
ATOM      7  C5  UNL A   1      33.898 -10.742  26.889  1.00  0.00    +0.000 C 
BRANCH    7    6
ATOM    105  H7  UNL A   1      33.165  -8.831  26.286  1.00  0.00    +0.000 H 
ATOM      6  C4  UNL A   1      33.912  -9.209  26.953  1.00  0.00    +0.000 C 
ATOM    104  H6  UNL A   1      34.880  -8.855  26.667  1.00  0.00    +0.000 H 
BRANCH    6    5
ATOM      5  N1  UNL A   1      33.614  -8.749  28.295  1.00  0.00    +0.000 N 
ATOM    103  H5  UNL A   1      33.845  -9.362  29.031  1.00  0.00    +0.000 H 
BRANCH    5    3
ATOM      3  C3  UNL A   1      33.047  -7.554  28.645  1.00  0.00    +0.000 C 
ATOM      4  O1  UNL A   1      33.812  -6.607  28.836  1.00  0.00    +0.000 O 
BRANCH    3    2
ATOM      2  C2  UNL A   1      31.518  -7.469  28.806  1.00  0.00    +0.000 C 
ATOM    102  H4  UNL A   1      31.203  -6.492  28.507  1.00  0.00    +0.000 H 
BRANCH    2    1
ATOM      1  C1  UNL A   1      31.176  -7.701  30.288  1.00  0.00    +0.000 C 
ATOM     99  H1  UNL A   1      31.373  -8.721  30.544  1.00  0.00    +0.000 H 
ATOM    100  H2  UNL A   1      30.140  -7.485  30.452  1.00  0.00    +0.000 H 
ATOM    101  H3  UNL A   1      31.775  -7.057  30.898  1.00  0.00    +0.000 H 
ENDBRANCH    2    1
BRANCH    2   78
ATOM    131  H33 UNL A   1      30.833 -10.108  29.106  1.00  0.00    +0.000 H 
ATOM    132  H34 UNL A   1      29.404 -11.502  27.729  1.00  0.00    +0.000 H 
ATOM    133  H35 UNL A   1      27.533 -12.440  25.929  1.00  0.00    +0.000 H 
ATOM    134  H36 UNL A   1      26.168 -11.364  22.111  1.00  0.00    +0.000 H 
ATOM    135  H37 UNL A   1      27.475  -9.311  22.187  1.00  0.00    +0.000 H 
ATOM    138  H40 UNL A   1      30.617  -7.028  26.267  1.00  0.00    +0.000 H 
ATOM     78  C55 UNL A   1      30.737  -8.407  27.870  1.00  0.00    +0.000 C 
ATOM     79  C56 UNL A   1      30.445  -9.727  28.229  1.00  0.00    +0.000 C 
ATOM     80  C57 UNL A   1      29.638 -10.544  27.425  1.00  0.00    +0.000 C 
ATOM     81  C58 UNL A   1      29.145 -10.052  26.200  1.00  0.00    +0.000 C 
ATOM     82  C59 UNL A   1      28.256 -10.569  25.219  1.00  0.00    +0.000 C 
ATOM     83  C60 UNL A   1      27.509 -11.764  25.148  1.00  0.00    +0.000 C 
ATOM     84  C61 UNL A   1      26.742 -12.028  24.019  1.00  0.00    +0.000 C 
ATOM     85 Cl1  UNL A   1      25.818 -13.479  23.940  1.00  0.00    +0.000 Cl
ATOM     86  C62 UNL A   1      26.727 -11.143  22.950  1.00  0.00    +0.000 C 
ATOM     87  C63 UNL A   1      27.466  -9.953  22.994  1.00  0.00    +0.000 C 
ATOM     88  C64 UNL A   1      28.195  -9.647  24.163  1.00  0.00    +0.000 C 
ATOM     89  N7  UNL A   1      29.001  -8.558  24.508  1.00  0.00    +0.000 N 
ATOM     97  C69 UNL A   1      29.549  -8.793  25.775  1.00  0.00    +0.000 C 
ATOM     98  C70 UNL A   1      30.336  -7.964  26.599  1.00  0.00    +0.000 C 
BRANCH   89   90
ATOM     90  C65 UNL A   1      29.272  -7.393  23.742  1.00  0.00    +0.000 C 
ATOM     91  O3  UNL A   1      28.309  -6.634  23.564  1.00  0.00    +0.000 O 
BRANCH   90   92
ATOM    136  H38 UNL A   1      31.717  -8.889  23.218  1.00  0.00    +0.000 H 
ATOM    137  H39 UNL A   1      32.478  -5.239  21.483  1.00  0.00    +0.000 H 
ATOM     92  C66 UNL A   1      30.555  -7.076  23.129  1.00  0.00    +0.000 C 
ATOM     93  C67 UNL A   1      31.634  -7.908  22.907  1.00  0.00    +0.000 C 
ATOM     94  O4  UNL A   1      32.575  -7.212  22.203  1.00  0.00    +0.000 O 
ATOM     95  C68 UNL A   1      32.008  -5.993  22.008  1.00  0.00    +0.000 C 
ATOM     96  N8  UNL A   1      30.819  -5.849  22.537  1.00  0.00    +0.000 N 
ENDBRANCH   90   92
ENDBRANCH   89   90
ENDBRANCH    2   78
ENDBRANCH    3    2
ENDBRANCH    5    3
ENDBRANCH    6    5
ENDBRANCH    7    6
ENDBRANCH    8    7
ENDBRANCH    9    8
ENDBRANCH   10    9
ENDBRANCH   11   10
ENDBRANCH   12   11
ENDBRANCH   13   12
ENDBRANCH   15   13
ENDBRANCH   19   18
BRANCH   23   24
ATOM     33  C24 UNL A   1      28.685 -13.807  37.765  1.00  0.00    +0.000 C 
ATOM     34  F5  UNL A   1      29.140 -12.607  37.376  1.00  0.00    +0.000 F 
ATOM     24  C19 UNL A   1      27.743 -14.494  36.985  1.00  0.00    +0.000 C 
ATOM     25  C20 UNL A   1      27.305 -15.748  37.437  1.00  0.00    +0.000 C 
ATOM     26  F1  UNL A   1      26.396 -16.439  36.733  1.00  0.00    +0.000 F 
ATOM     27  C21 UNL A   1      27.776 -16.284  38.632  1.00  0.00    +0.000 C 
ATOM     28  F2  UNL A   1      27.314 -17.467  39.063  1.00  0.00    +0.000 F 
ATOM     29  C22 UNL A   1      28.715 -15.593  39.383  1.00  0.00    +0.000 C 
ATOM     30  F3  UNL A   1      29.175 -16.114  40.529  1.00  0.00    +0.000 F 
ATOM     31  C23 UNL A   1      29.173 -14.358  38.948  1.00  0.00    +0.000 C 
ATOM     32  F4  UNL A   1      30.089 -13.694  39.667  1.00  0.00    +0.000 F 
ENDBRANCH   23   24
BRANCH   40   41
ATOM     41  C30 UNL A   1      22.366 -10.341  34.565  1.00  0.00    +0.000 C 
ATOM     42  C31 UNL A   1      22.510  -9.082  35.166  1.00  0.00    +0.000 C 
ATOM     43  F6  UNL A   1      23.725  -8.526  35.286  1.00  0.00    +0.000 F 
ATOM     44  C32 UNL A   1      21.410  -8.410  35.691  1.00  0.00    +0.000 C 
ATOM     45  F7  UNL A   1      21.577  -7.232  36.308  1.00  0.00    +0.000 F 
ATOM     46  C33 UNL A   1      20.144  -8.967  35.593  1.00  0.00    +0.000 C 
ATOM     47  F8  UNL A   1      19.085  -8.320  36.100  1.00  0.00    +0.000 F 
ATOM     48  C34 UNL A   1      19.974 -10.200  34.981  1.00  0.00    +0.000 C 
ATOM     49  F9  UNL A   1      18.750 -10.734  34.878  1.00  0.00    +0.000 F 
ATOM     50  C35 UNL A   1      21.077 -10.887  34.479  1.00  0.00    +0.000 C 
ATOM     51  F10 UNL A   1      20.886 -12.085  33.908  1.00  0.00    +0.000 F 
ENDBRANCH   40   41
BRANCH   55   56
ATOM     65  C44 UNL A   1      25.427  -9.882  27.503  1.00  0.00    +0.000 C 
ATOM     66  F15 UNL A   1      26.407  -9.221  28.135  1.00  0.00    +0.000 F 
ATOM     56  C39 UNL A   1      24.841 -11.008  28.097  1.00  0.00    +0.000 C 
ATOM     57  C40 UNL A   1      23.816 -11.658  27.397  1.00  0.00    +0.000 C 
ATOM     58  F11 UNL A   1      23.239 -12.752  27.917  1.00  0.00    +0.000 F 
ATOM     59  C41 UNL A   1      23.409 -11.215  26.140  1.00  0.00    +0.000 C 
ATOM     60  F12 UNL A   1      22.460 -11.882  25.471  1.00  0.00    +0.000 F 
ATOM     61  C42 UNL A   1      23.999 -10.095  25.573  1.00  0.00    +0.000 C 
ATOM     62  F13 UNL A   1      23.609  -9.668  24.365  1.00  0.00    +0.000 F 
ATOM     63  C43 UNL A   1      25.001  -9.423  26.258  1.00  0.00    +0.000 C 
ATOM     64  F14 UNL A   1      25.565  -8.332  25.720  1.00  0.00    +0.000 F 
ENDBRANCH   55   56
TORSDOF 19
ENDMDL
MODEL 5
REMARK VINA RESULT:     -11.5      5.806      9.790
ROOT
ATOM     19  C15 UNL A   1      25.627  34.972  45.623  1.00  0.00    +0.000 C 
ATOM     20  C16 UNL A   1      25.298  36.156  46.487  1.00  0.00    +0.000 C 
ATOM     21  N3  UNL A   1      26.041  37.192  46.788  1.00  0.00    +0.000 N 
ATOM     22  C17 UNL A   1      25.255  38.000  47.598  1.00  0.00    +0.000 C 
ATOM     23  C18 UNL A   1      25.593  39.153  48.223  1.00  0.00    +0.000 C 
ATOM     35  C25 UNL A   1      26.887  39.778  48.136  1.00  0.00    +0.000 C 
ATOM     36  C26 UNL A   1      27.335  40.931  48.757  1.00  0.00    +0.000 C 
ATOM     37  C27 UNL A   1      28.655  41.162  48.354  1.00  0.00    +0.000 C 
ATOM     38  C28 UNL A   1      29.041  40.133  47.511  1.00  0.00    +0.000 C 
ATOM     39  N4  UNL A   1      27.944  39.297  47.377  1.00  0.00    +0.000 N 
ATOM     40  C29 UNL A   1      30.316  39.924  46.876  1.00  0.00    +0.000 C 
ATOM     52  C36 UNL A   1      30.614  38.890  46.053  1.00  0.00    +0.000 C 
ATOM     53  N5  UNL A   1      29.805  37.841  45.639  1.00  0.00    +0.000 N 
ATOM     54  C37 UNL A   1      30.537  37.120  44.826  1.00  0.00    +0.000 C 
ATOM     55  C38 UNL A   1      30.181  35.852  44.101  1.00  0.00    +0.000 C 
ATOM     67  C45 UNL A   1      28.967  35.303  44.291  1.00  0.00    +0.000 C 
ATOM     68  C46 UNL A   1      28.495  34.060  43.691  1.00  0.00    +0.000 C 
ATOM     69  C47 UNL A   1      27.238  33.825  44.100  1.00  0.00    +0.000 C 
ATOM     70  C48 UNL A   1      26.823  34.895  45.009  1.00  0.00    +0.000 C 
ATOM     71  N6  UNL A   1      27.909  35.733  45.055  1.00  0.00    +0.000 N 
ATOM     72  C49 UNL A   1      31.895  37.640  44.621  1.00  0.00    +0.000 C 
ATOM     73  C50 UNL A   1      31.904  38.695  45.423  1.00  0.00    +0.000 C 
ATOM     74  C51 UNL A   1      23.958  37.364  47.697  1.00  0.00    +0.000 C 
ATOM     75  C52 UNL A   1      23.950  36.195  47.074  1.00  0.00    +0.000 C 
ATOM    119  H21 UNL A   1      26.789  41.518  49.407  1.00  0.00    +0.000 H 
ATOM    120  H22 UNL A   1      29.240  41.963  48.636  1.00  0.00    +0.000 H 
ATOM    121  H23 UNL A   1      27.919  38.481  46.827  1.00  0.00    +0.000 H 
ATOM    122  H24 UNL A   1      29.041  33.458  43.055  1.00  0.00    +0.000 H 
ATOM    123  H25 UNL A   1      26.657  33.020  43.818  1.00  0.00    +0.000 H 
ATOM    124  H26 UNL A   1      27.927  36.562  45.585  1.00  0.00    +0.000 H 
ATOM    125  H27 UNL A   1      32.647  37.280  44.011  1.00  0.00    +0.000 H 
ATOM    126  H28 UNL A   1      32.725  39.300  45.580  1.00  0.00    +0.000 H 
ATOM    127  H29 UNL A   1      23.147  37.770  48.189  1.00  0.00    +0.000 H 
ATOM    128  H30 UNL A   1      23.194  35.494  47.017  1.00  0.00    +0.000 H 
ENDROOT
BRANCH   19   18
ATOM    129  H31 UNL A   1      24.902  32.999  47.308  1.00  0.00    +0.000 H 
ATOM    130  H32 UNL A   1      23.330  31.193  46.925  1.00  0.00    +0.000 H 
ATOM     76  C53 UNL A   1      24.389  32.944  46.414  1.00  0.00    +0.000 C 
ATOM     77  C54 UNL A   1      23.457  31.926  46.211  1.00  0.00    +0.000 C 
ATOM     15  C11 UNL A   1      22.695  31.901  45.038  1.00  0.00    +0.000 C 
ATOM     16  C12 UNL A   1      22.941  32.831  44.023  1.00  0.00    +0.000 C 
ATOM     17  C13 UNL A   1      23.916  33.812  44.203  1.00  0.00    +0.000 C 
ATOM     18  C14 UNL A   1      24.631  33.892  45.410  1.00  0.00    +0.000 C 
ATOM    117  H19 UNL A   1      22.403  32.792  43.144  1.00  0.00    +0.000 H 
ATOM    118  H20 UNL A   1      24.114  34.483  43.445  1.00  0.00    +0.000 H 
BRANCH   15   13
ATOM     13  C10 UNL A   1      21.648  30.876  44.816  1.00  0.00    +0.000 C 
ATOM     14  O2  UNL A   1      21.973  29.700  44.678  1.00  0.00    +0.000 O 
BRANCH   13   12
ATOM    116  H18 UNL A   1      19.794  30.992  45.545  1.00  0.00    +0.000 H 
ATOM     12  N2  UNL A   1      20.330  31.231  44.754  1.00  0.00    +0.000 N 
BRANCH   12   11
ATOM    114  H16 UNL A   1      20.197  31.893  42.802  1.00  0.00    +0.000 H 
ATOM     11  C9  UNL A   1      19.603  31.909  43.692  1.00  0.00    +0.000 C 
ATOM    115  H17 UNL A   1      18.674  31.397  43.548  1.00  0.00    +0.000 H 
BRANCH   11   10
ATOM    113  H15 UNL A   1      18.251  33.504  43.821  1.00  0.00    +0.000 H 
ATOM     10  C8  UNL A   1      19.287  33.360  44.047  1.00  0.00    +0.000 C 
ATOM    112  H14 UNL A   1      19.937  33.990  43.474  1.00  0.00    +0.000 H 
BRANCH   10    9
ATOM      9  C7  UNL A   1      19.460  33.717  45.524  1.00  0.00    +0.000 C 
ATOM    110  H12 UNL A   1      18.552  34.171  45.865  1.00  0.00    +0.000 H 
ATOM    111  H13 UNL A   1      19.693  32.802  46.028  1.00  0.00    +0.000 H 
BRANCH    9    8
ATOM    108  H10 UNL A   1      20.500  35.024  46.832  1.00  0.00    +0.000 H 
ATOM    109  H11 UNL A   1      21.513  34.121  45.667  1.00  0.00    +0.000 H 
ATOM      8  C6  UNL A   1      20.612  34.677  45.826  1.00  0.00    +0.000 C 
BRANCH    8    7
ATOM    106  H8  UNL A   1      21.655  35.900  44.434  1.00  0.00    +0.000 H 
ATOM    107  H9  UNL A   1      19.888  35.816  44.212  1.00  0.00    +0.000 H 
ATOM      7  C5  UNL A   1      20.696  35.901  44.907  1.00  0.00    +0.000 C 
BRANCH    7    6
ATOM    105  H7  UNL A   1      20.737  38.034  44.935  1.00  0.00    +0.000 H 
ATOM      6  C4  UNL A   1      20.515  37.246  45.623  1.00  0.00    +0.000 C 
ATOM    104  H6  UNL A   1      21.177  37.287  46.463  1.00  0.00    +0.000 H 
BRANCH    6    5
ATOM      5  N1  UNL A   1      19.151  37.402  46.086  1.00  0.00    +0.000 N 
ATOM    103  H5  UNL A   1      18.549  37.930  45.512  1.00  0.00    +0.000 H 
BRANCH    5    3
ATOM      3  C3  UNL A   1      18.610  36.893  47.236  1.00  0.00    +0.000 C 
ATOM      4  O1  UNL A   1      19.296  36.969  48.257  1.00  0.00    +0.000 O 
BRANCH    3    2
ATOM      2  C2  UNL A   1      17.217  36.241  47.184  1.00  0.00    +0.000 C 
ATOM    102  H4  UNL A   1      17.320  35.207  47.438  1.00  0.00    +0.000 H 
BRANCH    2    1
ATOM      1  C1  UNL A   1      16.673  36.379  45.752  1.00  0.00    +0.000 C 
ATOM     99  H1  UNL A   1      15.604  36.417  45.779  1.00  0.00    +0.000 H 
ATOM    100  H2  UNL A   1      16.985  35.537  45.170  1.00  0.00    +0.000 H 
ATOM    101  H3  UNL A   1      17.052  37.277  45.311  1.00  0.00    +0.000 H 
ENDBRANCH    2    1
BRANCH    2   78
ATOM    131  H33 UNL A   1      14.512  35.866  47.443  1.00  0.00    +0.000 H 
ATOM    132  H34 UNL A   1      13.023  36.527  49.239  1.00  0.00    +0.000 H 
ATOM    133  H35 UNL A   1      11.955  37.320  51.658  1.00  0.00    +0.000 H 
ATOM    134  H36 UNL A   1      13.008  39.972  54.734  1.00  0.00    +0.000 H 
ATOM    135  H37 UNL A   1      15.184  40.350  53.706  1.00  0.00    +0.000 H 
ATOM    138  H40 UNL A   1      17.646  38.029  49.203  1.00  0.00    +0.000 H 
ATOM     78  C55 UNL A   1      16.234  36.778  48.239  1.00  0.00    +0.000 C 
ATOM     79  C56 UNL A   1      14.880  36.430  48.226  1.00  0.00    +0.000 C 
ATOM     80  C57 UNL A   1      14.010  36.829  49.250  1.00  0.00    +0.000 C 
ATOM     81  C58 UNL A   1      14.488  37.643  50.296  1.00  0.00    +0.000 C 
ATOM     82  C59 UNL A   1      13.914  38.136  51.499  1.00  0.00    +0.000 C 
ATOM     83  C60 UNL A   1      12.650  37.946  52.097  1.00  0.00    +0.000 C 
ATOM     84  C61 UNL A   1      12.345  38.607  53.282  1.00  0.00    +0.000 C 
ATOM     85 Cl1  UNL A   1      10.808  38.362  54.020  1.00  0.00    +0.000 Cl
ATOM     86  C62 UNL A   1      13.258  39.474  53.865  1.00  0.00    +0.000 C 
ATOM     87  C63 UNL A   1      14.517  39.684  53.286  1.00  0.00    +0.000 C 
ATOM     88  C64 UNL A   1      14.859  38.966  52.120  1.00  0.00    +0.000 C 
ATOM     89  N7  UNL A   1      16.014  38.951  51.333  1.00  0.00    +0.000 N 
ATOM     97  C69 UNL A   1      15.795  38.106  50.237  1.00  0.00    +0.000 C 
ATOM     98  C70 UNL A   1      16.675  37.679  49.222  1.00  0.00    +0.000 C 
BRANCH   89   90
ATOM     90  C65 UNL A   1      17.226  39.661  51.543  1.00  0.00    +0.000 C 
ATOM     91  O3  UNL A   1      17.903  39.288  52.511  1.00  0.00    +0.000 O 
BRANCH   90   92
ATOM    136  H38 UNL A   1      19.631  40.265  50.013  1.00  0.00    +0.000 H 
ATOM    137  H39 UNL A   1      17.234  43.527  49.290  1.00  0.00    +0.000 H 
ATOM     92  C66 UNL A   1      17.677  40.797  50.751  1.00  0.00    +0.000 C 
ATOM     93  C67 UNL A   1      18.849  40.938  50.033  1.00  0.00    +0.000 C 
ATOM     94  O4  UNL A   1      18.796  42.121  49.353  1.00  0.00    +0.000 O 
ATOM     95  C68 UNL A   1      17.578  42.632  49.671  1.00  0.00    +0.000 C 
ATOM     96  N8  UNL A   1      16.873  41.899  50.497  1.00  0.00    +0.000 N 
ENDBRANCH   90   92
ENDBRANCH   89   90
ENDBRANCH    2   78
ENDBRANCH    3    2
ENDBRANCH    5    3
ENDBRANCH    6    5
ENDBRANCH    7    6
ENDBRANCH    8    7
ENDBRANCH    9    8
ENDBRANCH   10    9
ENDBRANCH   11   10
ENDBRANCH   12   11
ENDBRANCH   13   12
ENDBRANCH   15   13
ENDBRANCH   19   18
BRANCH   23   24
ATOM     33  C24 UNL A   1      23.709  40.802  48.550  1.00  0.00    +0.000 C 
ATOM     34  F5  UNL A   1      23.803  41.151  47.259  1.00  0.00    +0.000 F 
ATOM     24  C19 UNL A   1      24.548  39.809  49.078  1.00  0.00    +0.000 C 
ATOM     25  C20 UNL A   1      24.411  39.486  50.436  1.00  0.00    +0.000 C 
ATOM     26  F1  UNL A   1      25.182  38.535  50.985  1.00  0.00    +0.000 F 
ATOM     27  C21 UNL A   1      23.460  40.119  51.231  1.00  0.00    +0.000 C 
ATOM     28  F2  UNL A   1      23.322  39.768  52.517  1.00  0.00    +0.000 F 
ATOM     29  C22 UNL A   1      22.648  41.106  50.692  1.00  0.00    +0.000 C 
ATOM     30  F3  UNL A   1      21.739  41.722  51.461  1.00  0.00    +0.000 F 
ATOM     31  C23 UNL A   1      22.776  41.452  49.354  1.00  0.00    +0.000 C 
ATOM     32  F4  UNL A   1      22.000  42.413  48.836  1.00  0.00    +0.000 F 
ENDBRANCH   23   24
BRANCH   40   41
ATOM     41  C30 UNL A   1      31.411  40.912  47.151  1.00  0.00    +0.000 C 
ATOM     42  C31 UNL A   1      32.401  40.658  48.111  1.00  0.00    +0.000 C 
ATOM     43  F6  UNL A   1      32.367  39.528  48.833  1.00  0.00    +0.000 F 
ATOM     44  C32 UNL A   1      33.404  41.588  48.366  1.00  0.00    +0.000 C 
ATOM     45  F7  UNL A   1      34.310  41.348  49.324  1.00  0.00    +0.000 F 
ATOM     46  C33 UNL A   1      33.456  42.771  47.645  1.00  0.00    +0.000 C 
ATOM     47  F8  UNL A   1      34.422  43.666  47.893  1.00  0.00    +0.000 F 
ATOM     48  C34 UNL A   1      32.501  43.032  46.673  1.00  0.00    +0.000 C 
ATOM     49  F9  UNL A   1      32.556  44.170  45.969  1.00  0.00    +0.000 F 
ATOM     50  C35 UNL A   1      31.481  42.115  46.434  1.00  0.00    +0.000 C 
ATOM     51  F10 UNL A   1      30.561  42.402  45.501  1.00  0.00    +0.000 F 
ENDBRANCH   40   41
BRANCH   55   56
ATOM     65  C44 UNL A   1      31.326  35.602  41.875  1.00  0.00    +0.000 C 
ATOM     66  F15 UNL A   1      30.582  36.605  41.387  1.00  0.00    +0.000 F 
ATOM     56  C39 UNL A   1      31.161  35.187  43.204  1.00  0.00    +0.000 C 
ATOM     57  C40 UNL A   1      31.958  34.130  43.663  1.00  0.00    +0.000 C 
ATOM     58  F11 UNL A   1      31.850  33.712  44.934  1.00  0.00    +0.000 F 
ATOM     59  C41 UNL A   1      32.902  33.528  42.834  1.00  0.00    +0.000 C 
ATOM     60  F12 UNL A   1      33.684  32.551  43.311  1.00  0.00    +0.000 F 
ATOM     61  C42 UNL A   1      33.044  33.951  41.520  1.00  0.00    +0.000 C 
ATOM     62  F13 UNL A   1      33.951  33.372  40.723  1.00  0.00    +0.000 F 
ATOM     63  C43 UNL A   1      32.250  34.981  41.039  1.00  0.00    +0.000 C 
ATOM     64  F14 UNL A   1      32.375  35.384  39.766  1.00  0.00    +0.000 F 
ENDBRANCH   55   56
TORSDOF 19
ENDMDL
MODEL 6
REMARK VINA RESULT:     -11.5     27.587     37.032
ROOT
ATOM     19  C15 UNL A   1       9.076   9.438  27.359  1.00  0.00    +0.000 C 
ATOM     20  C16 UNL A   1       7.900   9.158  26.467  1.00  0.00    +0.000 C 
ATOM     21  N3  UNL A   1       7.391   8.005  26.109  1.00  0.00    +0.000 N 
ATOM     22  C17 UNL A   1       6.305   8.305  25.298  1.00  0.00    +0.000 C 
ATOM     23  C18 UNL A   1       5.492   7.456  24.624  1.00  0.00    +0.000 C 
ATOM     35  C25 UNL A   1       5.612   6.022  24.650  1.00  0.00    +0.000 C 
ATOM     36  C26 UNL A   1       4.856   5.078  23.977  1.00  0.00    +0.000 C 
ATOM     37  C27 UNL A   1       5.324   3.808  24.331  1.00  0.00    +0.000 C 
ATOM     38  C28 UNL A   1       6.396   3.961  25.195  1.00  0.00    +0.000 C 
ATOM     39  N4  UNL A   1       6.555   5.324  25.390  1.00  0.00    +0.000 N 
ATOM     40  C29 UNL A   1       7.217   2.944  25.796  1.00  0.00    +0.000 C 
ATOM     52  C36 UNL A   1       8.249   3.177  26.643  1.00  0.00    +0.000 C 
ATOM     53  N5  UNL A   1       8.734   4.387  27.117  1.00  0.00    +0.000 N 
ATOM     54  C37 UNL A   1       9.718   4.089  27.929  1.00  0.00    +0.000 C 
ATOM     55  C38 UNL A   1      10.618   5.008  28.706  1.00  0.00    +0.000 C 
ATOM     67  C45 UNL A   1      10.474   6.339  28.573  1.00  0.00    +0.000 C 
ATOM     68  C46 UNL A   1      11.297   7.350  29.228  1.00  0.00    +0.000 C 
ATOM     69  C47 UNL A   1      10.863   8.569  28.867  1.00  0.00    +0.000 C 
ATOM     70  C48 UNL A   1       9.743   8.422  27.936  1.00  0.00    +0.000 C 
ATOM     71  N6  UNL A   1       9.576   7.064  27.829  1.00  0.00    +0.000 N 
ATOM     72  C49 UNL A   1       9.959   2.647  28.074  1.00  0.00    +0.000 C 
ATOM     73  C50 UNL A   1       9.066   2.139  27.238  1.00  0.00    +0.000 C 
ATOM     74  C51 UNL A   1       6.193   9.748  25.260  1.00  0.00    +0.000 C 
ATOM     75  C52 UNL A   1       7.187  10.323  25.921  1.00  0.00    +0.000 C 
ATOM    119  H21 UNL A   1       4.081   5.277  23.326  1.00  0.00    +0.000 H 
ATOM    120  H22 UNL A   1       4.936   2.909  24.005  1.00  0.00    +0.000 H 
ATOM    121  H23 UNL A   1       7.238   5.736  25.968  1.00  0.00    +0.000 H 
ATOM    122  H24 UNL A   1      12.085   7.160  29.867  1.00  0.00    +0.000 H 
ATOM    123  H25 UNL A   1      11.257   9.466  29.194  1.00  0.00    +0.000 H 
ATOM    124  H26 UNL A   1       8.878   6.650  27.272  1.00  0.00    +0.000 H 
ATOM    125  H27 UNL A   1      10.644   2.157  28.672  1.00  0.00    +0.000 H 
ATOM    126  H28 UNL A   1       8.965   1.132  27.036  1.00  0.00    +0.000 H 
ATOM    127  H29 UNL A   1       5.436  10.262  24.781  1.00  0.00    +0.000 H 
ATOM    128  H30 UNL A   1       7.404  11.326  26.025  1.00  0.00    +0.000 H 
ENDROOT
BRANCH   19   18
ATOM    129  H31 UNL A   1      10.953  10.911  26.109  1.00  0.00    +0.000 H 
ATOM    130  H32 UNL A   1      11.687  13.165  26.619  1.00  0.00    +0.000 H 
ATOM     76  C53 UNL A   1      10.503  11.438  26.873  1.00  0.00    +0.000 C 
ATOM     77  C54 UNL A   1      10.901  12.748  27.140  1.00  0.00    +0.000 C 
ATOM     15  C11 UNL A   1      10.232  13.496  28.116  1.00  0.00    +0.000 C 
ATOM     16  C12 UNL A   1       9.237  12.898  28.896  1.00  0.00    +0.000 C 
ATOM     17  C13 UNL A   1       8.883  11.568  28.668  1.00  0.00    +0.000 C 
ATOM     18  C14 UNL A   1       9.495  10.835  27.638  1.00  0.00    +0.000 C 
ATOM    117  H19 UNL A   1       8.767  13.438  29.638  1.00  0.00    +0.000 H 
ATOM    118  H20 UNL A   1       8.165  11.121  29.260  1.00  0.00    +0.000 H 
BRANCH   15   13
ATOM     13  C10 UNL A   1      10.580  14.911  28.380  1.00  0.00    +0.000 C 
ATOM     14  O2  UNL A   1      11.659  15.181  28.900  1.00  0.00    +0.000 O 
BRANCH   13   12
ATOM    116  H18 UNL A   1       9.784  16.259  27.141  1.00  0.00    +0.000 H 
ATOM     12  N2  UNL A   1       9.707  15.913  28.060  1.00  0.00    +0.000 N 
BRANCH   12   11
ATOM    114  H16 UNL A   1       8.082  17.174  28.253  1.00  0.00    +0.000 H 
ATOM     11  C9  UNL A   1       8.682  16.545  28.878  1.00  0.00    +0.000 C 
ATOM    115  H17 UNL A   1       8.096  15.772  29.328  1.00  0.00    +0.000 H 
BRANCH   11   10
ATOM    113  H15 UNL A   1       9.822  16.716  30.627  1.00  0.00    +0.000 H 
ATOM     10  C8  UNL A   1       9.281  17.392  29.998  1.00  0.00    +0.000 C 
ATOM    112  H14 UNL A   1       8.479  17.890  30.502  1.00  0.00    +0.000 H 
BRANCH   10    9
ATOM      9  C7  UNL A   1      10.286  18.451  29.541  1.00  0.00    +0.000 C 
ATOM    110  H12 UNL A   1      10.437  18.334  28.488  1.00  0.00    +0.000 H 
ATOM    111  H13 UNL A   1       9.865  19.399  29.807  1.00  0.00    +0.000 H 
BRANCH    9    8
ATOM    108  H10 UNL A   1      11.536  18.729  31.232  1.00  0.00    +0.000 H 
ATOM    109  H11 UNL A   1      11.969  17.363  30.161  1.00  0.00    +0.000 H 
ATOM      8  C6  UNL A   1      11.652  18.383  30.226  1.00  0.00    +0.000 C 
BRANCH    8    7
ATOM    106  H8  UNL A   1      13.450  19.517  30.317  1.00  0.00    +0.000 H 
ATOM    107  H9  UNL A   1      13.196  18.595  28.811  1.00  0.00    +0.000 H 
ATOM      7  C5  UNL A   1      12.754  19.216  29.561  1.00  0.00    +0.000 C 
BRANCH    7    6
ATOM    105  H7  UNL A   1      12.738  21.330  29.269  1.00  0.00    +0.000 H 
ATOM      6  C4  UNL A   1      12.252  20.476  28.845  1.00  0.00    +0.000 C 
ATOM    104  H6  UNL A   1      11.192  20.551  28.969  1.00  0.00    +0.000 H 
BRANCH    6    5
ATOM      5  N1  UNL A   1      12.561  20.419  27.430  1.00  0.00    +0.000 N 
ATOM    103  H5  UNL A   1      12.873  19.553  27.082  1.00  0.00    +0.000 H 
BRANCH    5    3
ATOM      3  C3  UNL A   1      12.464  21.444  26.527  1.00  0.00    +0.000 C 
ATOM      4  O1  UNL A   1      12.906  22.540  26.875  1.00  0.00    +0.000 O 
BRANCH    3    2
ATOM      2  C2  UNL A   1      11.797  21.181  25.165  1.00  0.00    +0.000 C 
ATOM    102  H4  UNL A   1      11.088  21.961  24.982  1.00  0.00    +0.000 H 
BRANCH    2    1
ATOM      1  C1  UNL A   1      11.077  19.824  25.234  1.00  0.00    +0.000 C 
ATOM     99  H1  UNL A   1      10.039  19.959  25.014  1.00  0.00    +0.000 H 
ATOM    100  H2  UNL A   1      11.183  19.414  26.218  1.00  0.00    +0.000 H 
ATOM    101  H3  UNL A   1      11.510  19.153  24.522  1.00  0.00    +0.000 H 
ENDBRANCH    2    1
BRANCH    2   78
ATOM    131  H33 UNL A   1      11.614  22.646  22.853  1.00  0.00    +0.000 H 
ATOM    132  H34 UNL A   1      13.245  22.960  21.087  1.00  0.00    +0.000 H 
ATOM    133  H35 UNL A   1      15.565  23.096  19.597  1.00  0.00    +0.000 H 
ATOM    134  H36 UNL A   1      19.071  20.825  19.198  1.00  0.00    +0.000 H 
ATOM    135  H37 UNL A   1      18.424  19.436  21.091  1.00  0.00    +0.000 H 
ATOM    138  H40 UNL A   1      14.066  19.753  24.646  1.00  0.00    +0.000 H 
ATOM     78  C55 UNL A   1      12.758  21.275  23.968  1.00  0.00    +0.000 C 
ATOM     79  C56 UNL A   1      12.506  22.128  22.888  1.00  0.00    +0.000 C 
ATOM     80  C57 UNL A   1      13.436  22.295  21.853  1.00  0.00    +0.000 C 
ATOM     81  C58 UNL A   1      14.635  21.555  21.863  1.00  0.00    +0.000 C 
ATOM     82  C59 UNL A   1      15.795  21.551  21.041  1.00  0.00    +0.000 C 
ATOM     83  C60 UNL A   1      16.175  22.332  19.930  1.00  0.00    +0.000 C 
ATOM     84  C61 UNL A   1      17.378  22.066  19.283  1.00  0.00    +0.000 C 
ATOM     85 Cl1  UNL A   1      17.849  23.030  17.937  1.00  0.00    +0.000 Cl
ATOM     86  C62 UNL A   1      18.191  21.022  19.702  1.00  0.00    +0.000 C 
ATOM     87  C63 UNL A   1      17.831  20.228  20.800  1.00  0.00    +0.000 C 
ATOM     88  C64 UNL A   1      16.645  20.534  21.501  1.00  0.00    +0.000 C 
ATOM     89  N7  UNL A   1      16.037  19.948  22.615  1.00  0.00    +0.000 N 
ATOM     97  C69 UNL A   1      14.824  20.604  22.857  1.00  0.00    +0.000 C 
ATOM     98  C70 UNL A   1      13.901  20.460  23.912  1.00  0.00    +0.000 C 
BRANCH   89   90
ATOM     90  C65 UNL A   1      16.508  18.861  23.399  1.00  0.00    +0.000 C 
ATOM     91  O3  UNL A   1      16.390  17.740  22.886  1.00  0.00    +0.000 O 
BRANCH   90   92
ATOM    136  H38 UNL A   1      17.279  16.958  25.466  1.00  0.00    +0.000 H 
ATOM    137  H39 UNL A   1      18.343  20.579  27.101  1.00  0.00    +0.000 H 
ATOM     92  C66 UNL A   1      17.052  18.976  24.745  1.00  0.00    +0.000 C 
ATOM     93  C67 UNL A   1      17.414  17.970  25.619  1.00  0.00    +0.000 C 
ATOM     94  O4  UNL A   1      17.981  18.542  26.722  1.00  0.00    +0.000 O 
ATOM     95  C68 UNL A   1      17.960  19.873  26.452  1.00  0.00    +0.000 C 
ATOM     96  N8  UNL A   1      17.419  20.193  25.303  1.00  0.00    +0.000 N 
ENDBRANCH   90   92
ENDBRANCH   89   90
ENDBRANCH    2   78
ENDBRANCH    3    2
ENDBRANCH    5    3
ENDBRANCH    6    5
ENDBRANCH    7    6
ENDBRANCH    8    7
ENDBRANCH    9    8
ENDBRANCH   10    9
ENDBRANCH   11   10
ENDBRANCH   12   11
ENDBRANCH   13   12
ENDBRANCH   15   13
ENDBRANCH   19   18
BRANCH   23   24
ATOM     33  C24 UNL A   1       3.140   8.322  24.324  1.00  0.00    +0.000 C 
ATOM     34  F5  UNL A   1       2.893   8.075  25.619  1.00  0.00    +0.000 F 
ATOM     24  C19 UNL A   1       4.407   8.059  23.782  1.00  0.00    +0.000 C 
ATOM     25  C20 UNL A   1       4.608   8.331  22.420  1.00  0.00    +0.000 C 
ATOM     26  F1  UNL A   1       5.805   8.108  21.857  1.00  0.00    +0.000 F 
ATOM     27  C21 UNL A   1       3.588   8.863  21.637  1.00  0.00    +0.000 C 
ATOM     28  F2  UNL A   1       3.814   9.150  20.347  1.00  0.00    +0.000 F 
ATOM     29  C22 UNL A   1       2.340   9.105  22.190  1.00  0.00    +0.000 C 
ATOM     30  F3  UNL A   1       1.354   9.608  21.432  1.00  0.00    +0.000 F 
ATOM     31  C23 UNL A   1       2.113   8.830  23.531  1.00  0.00    +0.000 C 
ATOM     32  F4  UNL A   1       0.904   9.053  24.064  1.00  0.00    +0.000 F 
ENDBRANCH   23   24
BRANCH   40   41
ATOM     41  C30 UNL A   1       6.928   1.512  25.454  1.00  0.00    +0.000 C 
ATOM     42  C31 UNL A   1       7.659   0.833  24.469  1.00  0.00    +0.000 C 
ATOM     43  F6  UNL A   1       8.620   1.470  23.782  1.00  0.00    +0.000 F 
ATOM     44  C32 UNL A   1       7.373  -0.491  24.152  1.00  0.00    +0.000 C 
ATOM     45  F7  UNL A   1       8.049  -1.105  23.171  1.00  0.00    +0.000 F 
ATOM     46  C33 UNL A   1       6.376  -1.171  24.835  1.00  0.00    +0.000 C 
ATOM     47  F8  UNL A   1       6.101  -2.446  24.528  1.00  0.00    +0.000 F 
ATOM     48  C34 UNL A   1       5.657  -0.526  25.831  1.00  0.00    +0.000 C 
ATOM     49  F9  UNL A   1       4.700  -1.185  26.498  1.00  0.00    +0.000 F 
ATOM     50  C35 UNL A   1       5.923   0.807  26.132  1.00  0.00    +0.000 C 
ATOM     51  F10 UNL A   1       5.199   1.410  27.087  1.00  0.00    +0.000 F 
ENDBRANCH   40   41
BRANCH   55   56
ATOM     65  C44 UNL A   1      12.853   3.910  29.067  1.00  0.00    +0.000 C 
ATOM     66  F15 UNL A   1      13.030   3.849  27.739  1.00  0.00    +0.000 F 
ATOM     56  C39 UNL A   1      11.678   4.464  29.594  1.00  0.00    +0.000 C 
ATOM     57  C40 UNL A   1      11.538   4.497  30.988  1.00  0.00    +0.000 C 
ATOM     58  F11 UNL A   1      10.440   5.035  31.539  1.00  0.00    +0.000 F 
ATOM     59  C41 UNL A   1      12.545   4.018  31.823  1.00  0.00    +0.000 C 
ATOM     60  F12 UNL A   1      12.408   4.105  33.153  1.00  0.00    +0.000 F 
ATOM     61  C42 UNL A   1      13.698   3.470  31.280  1.00  0.00    +0.000 C 
ATOM     62  F13 UNL A   1      14.666   3.009  32.082  1.00  0.00    +0.000 F 
ATOM     63  C43 UNL A   1      13.848   3.407  29.903  1.00  0.00    +0.000 C 
ATOM     64  F14 UNL A   1      14.953   2.865  29.373  1.00  0.00    +0.000 F 
ENDBRANCH   55   56
TORSDOF 19
ENDMDL
MODEL 7
REMARK VINA RESULT:     -11.5     26.438     33.190
ROOT
ATOM     19  C15 UNL A   1      46.317  11.801  47.018  1.00  0.00    +0.000 C 
ATOM     20  C16 UNL A   1      47.219  13.001  46.976  1.00  0.00    +0.000 C 
ATOM     21  N3  UNL A   1      48.201  13.325  47.780  1.00  0.00    +0.000 N 
ATOM     22  C17 UNL A   1      48.719  14.515  47.285  1.00  0.00    +0.000 C 
ATOM     23  C18 UNL A   1      49.702  15.289  47.804  1.00  0.00    +0.000 C 
ATOM     35  C25 UNL A   1      50.428  14.984  49.009  1.00  0.00    +0.000 C 
ATOM     36  C26 UNL A   1      51.421  15.721  49.631  1.00  0.00    +0.000 C 
ATOM     37  C27 UNL A   1      51.847  15.016  50.762  1.00  0.00    +0.000 C 
ATOM     38  C28 UNL A   1      51.094  13.858  50.866  1.00  0.00    +0.000 C 
ATOM     39  N4  UNL A   1      50.234  13.846  49.778  1.00  0.00    +0.000 N 
ATOM     40  C29 UNL A   1      51.149  12.839  51.881  1.00  0.00    +0.000 C 
ATOM     52  C36 UNL A   1      50.379  11.724  51.906  1.00  0.00    +0.000 C 
ATOM     53  N5  UNL A   1      49.407  11.313  51.005  1.00  0.00    +0.000 N 
ATOM     54  C37 UNL A   1      48.970  10.160  51.448  1.00  0.00    +0.000 C 
ATOM     55  C38 UNL A   1      47.899   9.271  50.881  1.00  0.00    +0.000 C 
ATOM     67  C45 UNL A   1      47.228   9.665  49.783  1.00  0.00    +0.000 C 
ATOM     68  C46 UNL A   1      46.140   8.931  49.145  1.00  0.00    +0.000 C 
ATOM     69  C47 UNL A   1      45.714   9.622  48.075  1.00  0.00    +0.000 C 
ATOM     70  C48 UNL A   1      46.488  10.860  47.965  1.00  0.00    +0.000 C 
ATOM     71  N6  UNL A   1      47.370  10.795  49.015  1.00  0.00    +0.000 N 
ATOM     72  C49 UNL A   1      49.629   9.701  52.678  1.00  0.00    +0.000 C 
ATOM     73  C50 UNL A   1      50.448  10.710  52.938  1.00  0.00    +0.000 C 
ATOM     74  C51 UNL A   1      47.980  14.829  46.081  1.00  0.00    +0.000 C 
ATOM     75  C52 UNL A   1      47.006  13.955  45.876  1.00  0.00    +0.000 C 
ATOM    119  H21 UNL A   1      51.784  16.634  49.316  1.00  0.00    +0.000 H 
ATOM    120  H22 UNL A   1      52.596  15.309  51.409  1.00  0.00    +0.000 H 
ATOM    121  H23 UNL A   1      49.582  13.135  49.582  1.00  0.00    +0.000 H 
ATOM    122  H24 UNL A   1      45.760   8.027  49.465  1.00  0.00    +0.000 H 
ATOM    123  H25 UNL A   1      44.962   9.327  47.433  1.00  0.00    +0.000 H 
ATOM    124  H26 UNL A   1      48.040  11.492  49.199  1.00  0.00    +0.000 H 
ATOM    125  H27 UNL A   1      49.492   8.822  53.202  1.00  0.00    +0.000 H 
ATOM    126  H28 UNL A   1      51.057  10.766  53.769  1.00  0.00    +0.000 H 
ATOM    127  H29 UNL A   1      48.186  15.629  45.462  1.00  0.00    +0.000 H 
ATOM    128  H30 UNL A   1      46.284  13.945  45.138  1.00  0.00    +0.000 H 
ENDROOT
BRANCH   19   18
ATOM    129  H31 UNL A   1      46.385  10.351  44.749  1.00  0.00    +0.000 H 
ATOM    130  H32 UNL A   1      44.666  10.124  43.054  1.00  0.00    +0.000 H 
ATOM     76  C53 UNL A   1      45.475  10.822  44.872  1.00  0.00    +0.000 C 
ATOM     77  C54 UNL A   1      44.474  10.659  43.914  1.00  0.00    +0.000 C 
ATOM     15  C11 UNL A   1      43.210  11.222  44.122  1.00  0.00    +0.000 C 
ATOM     16  C12 UNL A   1      42.981  12.036  45.235  1.00  0.00    +0.000 C 
ATOM     17  C13 UNL A   1      44.002  12.248  46.162  1.00  0.00    +0.000 C 
ATOM     18  C14 UNL A   1      45.250  11.622  46.001  1.00  0.00    +0.000 C 
ATOM    117  H19 UNL A   1      42.060  12.480  45.372  1.00  0.00    +0.000 H 
ATOM    118  H20 UNL A   1      43.840  12.868  46.971  1.00  0.00    +0.000 H 
BRANCH   15   13
ATOM     13  C10 UNL A   1      42.102  11.014  43.161  1.00  0.00    +0.000 C 
ATOM     14  O2  UNL A   1      41.358  10.047  43.296  1.00  0.00    +0.000 O 
BRANCH   13   12
ATOM    116  H18 UNL A   1      41.705  11.463  41.257  1.00  0.00    +0.000 H 
ATOM     12  N2  UNL A   1      41.910  11.883  42.123  1.00  0.00    +0.000 N 
BRANCH   12   11
ATOM    114  H16 UNL A   1      41.459  13.710  42.976  1.00  0.00    +0.000 H 
ATOM     11  C9  UNL A   1      41.966  13.337  42.110  1.00  0.00    +0.000 C 
ATOM    115  H17 UNL A   1      42.996  13.628  42.109  1.00  0.00    +0.000 H 
BRANCH   11   10
ATOM    113  H15 UNL A   1      40.773  14.793  41.191  1.00  0.00    +0.000 H 
ATOM     10  C8  UNL A   1      41.310  13.927  40.864  1.00  0.00    +0.000 C 
ATOM    112  H14 UNL A   1      40.681  13.176  40.434  1.00  0.00    +0.000 H 
BRANCH   10    9
ATOM      9  C7  UNL A   1      42.284  14.407  39.786  1.00  0.00    +0.000 C 
ATOM    110  H12 UNL A   1      43.113  13.731  39.762  1.00  0.00    +0.000 H 
ATOM    111  H13 UNL A   1      41.729  14.431  38.871  1.00  0.00    +0.000 H 
BRANCH    9    8
ATOM    108  H10 UNL A   1      42.011  16.506  39.927  1.00  0.00    +0.000 H 
ATOM    109  H11 UNL A   1      43.307  15.820  40.951  1.00  0.00    +0.000 H 
ATOM      8  C6  UNL A   1      42.830  15.821  39.993  1.00  0.00    +0.000 C 
BRANCH    8    7
ATOM    106  H8  UNL A   1      44.312  15.381  38.532  1.00  0.00    +0.000 H 
ATOM    107  H9  UNL A   1      43.409  16.899  38.280  1.00  0.00    +0.000 H 
ATOM      7  C5  UNL A   1      43.898  16.258  38.983  1.00  0.00    +0.000 C 
BRANCH    7    6
ATOM    105  H7  UNL A   1      44.925  18.099  39.315  1.00  0.00    +0.000 H 
ATOM      6  C4  UNL A   1      45.048  17.073  39.590  1.00  0.00    +0.000 C 
ATOM    104  H6  UNL A   1      45.978  16.697  39.218  1.00  0.00    +0.000 H 
BRANCH    6    5
ATOM      5  N1  UNL A   1      45.040  16.974  41.036  1.00  0.00    +0.000 N 
ATOM    103  H5  UNL A   1      44.184  17.163  41.485  1.00  0.00    +0.000 H 
BRANCH    5    3
ATOM      3  C3  UNL A   1      46.097  16.645  41.842  1.00  0.00    +0.000 C 
ATOM      4  O1  UNL A   1      47.224  16.758  41.359  1.00  0.00    +0.000 O 
BRANCH    3    2
ATOM      2  C2  UNL A   1      45.820  16.136  43.268  1.00  0.00    +0.000 C 
ATOM    102  H4  UNL A   1      46.659  15.553  43.585  1.00  0.00    +0.000 H 
BRANCH    2    1
ATOM      1  C1  UNL A   1      44.555  15.262  43.232  1.00  0.00    +0.000 C 
ATOM     99  H1  UNL A   1      43.944  15.555  42.404  1.00  0.00    +0.000 H 
ATOM    100  H2  UNL A   1      44.008  15.389  44.142  1.00  0.00    +0.000 H 
ATOM    101  H3  UNL A   1      44.834  14.235  43.124  1.00  0.00    +0.000 H 
ENDBRANCH    2    1
BRANCH    2   78
ATOM    131  H33 UNL A   1      46.844  18.681  43.253  1.00  0.00    +0.000 H 
ATOM    132  H34 UNL A   1      46.499  20.497  44.822  1.00  0.00    +0.000 H 
ATOM    133  H35 UNL A   1      45.519  22.168  46.788  1.00  0.00    +0.000 H 
ATOM    134  H36 UNL A   1      43.711  21.722  50.548  1.00  0.00    +0.000 H 
ATOM    135  H37 UNL A   1      43.541  19.315  50.215  1.00  0.00    +0.000 H 
ATOM    138  H40 UNL A   1      44.785  16.054  45.794  1.00  0.00    +0.000 H 
ATOM     78  C55 UNL A   1      45.732  17.251  44.325  1.00  0.00    +0.000 C 
ATOM     79  C56 UNL A   1      46.289  18.515  44.108  1.00  0.00    +0.000 C 
ATOM     80  C57 UNL A   1      46.112  19.562  45.022  1.00  0.00    +0.000 C 
ATOM     81  C58 UNL A   1      45.400  19.334  46.217  1.00  0.00    +0.000 C 
ATOM     82  C59 UNL A   1      44.975  20.172  47.283  1.00  0.00    +0.000 C 
ATOM     83  C60 UNL A   1      45.084  21.562  47.502  1.00  0.00    +0.000 C 
ATOM     84  C61 UNL A   1      44.603  22.110  48.687  1.00  0.00    +0.000 C 
ATOM     85 Cl1  UNL A   1      44.722  23.808  48.946  1.00  0.00    +0.000 Cl
ATOM     86  C62 UNL A   1      44.045  21.301  49.666  1.00  0.00    +0.000 C 
ATOM     87  C63 UNL A   1      43.931  19.917  49.474  1.00  0.00    +0.000 C 
ATOM     88  C64 UNL A   1      44.357  19.363  48.248  1.00  0.00    +0.000 C 
ATOM     89  N7  UNL A   1      44.364  18.051  47.765  1.00  0.00    +0.000 N 
ATOM     97  C69 UNL A   1      44.968  18.046  46.501  1.00  0.00    +0.000 C 
ATOM     98  C70 UNL A   1      45.122  17.003  45.566  1.00  0.00    +0.000 C 
BRANCH   89   90
ATOM     90  C65 UNL A   1      43.874  16.881  48.402  1.00  0.00    +0.000 C 
ATOM     91  O3  UNL A   1      42.641  16.789  48.479  1.00  0.00    +0.000 O 
BRANCH   90   92
ATOM    136  H38 UNL A   1      46.527  16.825  49.606  1.00  0.00    +0.000 H 
ATOM    137  H39 UNL A   1      45.188  12.975  50.147  1.00  0.00    +0.000 H 
ATOM     92  C66 UNL A   1      44.706  15.845  49.000  1.00  0.00    +0.000 C 
ATOM     93  C67 UNL A   1      45.955  15.967  49.578  1.00  0.00    +0.000 C 
ATOM     94  O4  UNL A   1      46.303  14.758  50.108  1.00  0.00    +0.000 O 
ATOM     95  C68 UNL A   1      45.233  13.962  49.849  1.00  0.00    +0.000 C 
ATOM     96  N8  UNL A   1      44.261  14.545  49.192  1.00  0.00    +0.000 N 
ENDBRANCH   90   92
ENDBRANCH   89   90
ENDBRANCH    2   78
ENDBRANCH    3    2
ENDBRANCH    5    3
ENDBRANCH    6    5
ENDBRANCH    7    6
ENDBRANCH    8    7
ENDBRANCH    9    8
ENDBRANCH   10    9
ENDBRANCH   11   10
ENDBRANCH   12   11
ENDBRANCH   13   12
ENDBRANCH   15   13
ENDBRANCH   19   18
BRANCH   23   24
ATOM     33  C24 UNL A   1      49.266  17.713  47.251  1.00  0.00    +0.000 C 
ATOM     34  F5  UNL A   1      48.232  17.713  48.105  1.00  0.00    +0.000 F 
ATOM     24  C19 UNL A   1      50.041  16.557  47.076  1.00  0.00    +0.000 C 
ATOM     25  C20 UNL A   1      51.107  16.611  46.167  1.00  0.00    +0.000 C 
ATOM     26  F1  UNL A   1      51.886  15.535  45.973  1.00  0.00    +0.000 F 
ATOM     27  C21 UNL A   1      51.398  17.782  45.472  1.00  0.00    +0.000 C 
ATOM     28  F2  UNL A   1      52.445  17.822  44.636  1.00  0.00    +0.000 F 
ATOM     29  C22 UNL A   1      50.613  18.911  45.651  1.00  0.00    +0.000 C 
ATOM     30  F3  UNL A   1      50.887  20.035  44.974  1.00  0.00    +0.000 F 
ATOM     31  C23 UNL A   1      49.544  18.875  46.535  1.00  0.00    +0.000 C 
ATOM     32  F4  UNL A   1      48.777  19.962  46.700  1.00  0.00    +0.000 F 
ENDBRANCH   23   24
BRANCH   40   41
ATOM     41  C30 UNL A   1      52.120  13.022  53.010  1.00  0.00    +0.000 C 
ATOM     42  C31 UNL A   1      51.748  13.674  54.195  1.00  0.00    +0.000 C 
ATOM     43  F6  UNL A   1      50.514  14.182  54.328  1.00  0.00    +0.000 F 
ATOM     44  C32 UNL A   1      52.661  13.848  55.231  1.00  0.00    +0.000 C 
ATOM     45  F7  UNL A   1      52.301  14.520  56.333  1.00  0.00    +0.000 F 
ATOM     46  C33 UNL A   1      53.948  13.346  55.116  1.00  0.00    +0.000 C 
ATOM     47  F8  UNL A   1      54.827  13.516  56.113  1.00  0.00    +0.000 F 
ATOM     48  C34 UNL A   1      54.330  12.676  53.962  1.00  0.00    +0.000 C 
ATOM     49  F9  UNL A   1      55.570  12.182  53.854  1.00  0.00    +0.000 F 
ATOM     50  C35 UNL A   1      53.426  12.523  52.914  1.00  0.00    +0.000 C 
ATOM     51  F10 UNL A   1      53.828  11.887  51.803  1.00  0.00    +0.000 F 
ENDBRANCH   40   41
BRANCH   55   56
ATOM     65  C44 UNL A   1      46.392   7.840  52.299  1.00  0.00    +0.000 C 
ATOM     66  F15 UNL A   1      45.570   8.885  52.468  1.00  0.00    +0.000 F 
ATOM     56  C39 UNL A   1      47.557   7.981  51.533  1.00  0.00    +0.000 C 
ATOM     57  C40 UNL A   1      48.387   6.859  51.393  1.00  0.00    +0.000 C 
ATOM     58  F11 UNL A   1      49.503   6.940  50.652  1.00  0.00    +0.000 F 
ATOM     59  C41 UNL A   1      48.051   5.639  51.975  1.00  0.00    +0.000 C 
ATOM     60  F12 UNL A   1      48.836   4.570  51.786  1.00  0.00    +0.000 F 
ATOM     61  C42 UNL A   1      46.895   5.524  52.733  1.00  0.00    +0.000 C 
ATOM     62  F13 UNL A   1      46.573   4.352  53.293  1.00  0.00    +0.000 F 
ATOM     63  C43 UNL A   1      46.071   6.627  52.903  1.00  0.00    +0.000 C 
ATOM     64  F14 UNL A   1      44.960   6.524  53.646  1.00  0.00    +0.000 F 
ENDBRANCH   55   56
TORSDOF 19
ENDMDL
MODEL 8
REMARK VINA RESULT:     -11.5     12.777     16.249
ROOT
ATOM     19  C15 UNL A   1      28.221  26.402  54.300  1.00  0.00    +0.000 C 
ATOM     20  C16 UNL A   1      27.106  26.439  55.306  1.00  0.00    +0.000 C 
ATOM     21  N3  UNL A   1      26.949  25.723  56.392  1.00  0.00    +0.000 N 
ATOM     22  C17 UNL A   1      25.766  26.166  56.970  1.00  0.00    +0.000 C 
ATOM     23  C18 UNL A   1      25.136  25.694  58.072  1.00  0.00    +0.000 C 
ATOM     35  C25 UNL A   1      25.619  24.607  58.884  1.00  0.00    +0.000 C 
ATOM     36  C26 UNL A   1      25.035  24.037  60.002  1.00  0.00    +0.000 C 
ATOM     37  C27 UNL A   1      25.882  23.026  60.470  1.00  0.00    +0.000 C 
ATOM     38  C28 UNL A   1      26.974  22.941  59.622  1.00  0.00    +0.000 C 
ATOM     39  N4  UNL A   1      26.805  23.924  58.659  1.00  0.00    +0.000 N 
ATOM     40  C29 UNL A   1      28.087  22.032  59.681  1.00  0.00    +0.000 C 
ATOM     52  C36 UNL A   1      29.128  22.018  58.812  1.00  0.00    +0.000 C 
ATOM     53  N5  UNL A   1      29.362  22.839  57.718  1.00  0.00    +0.000 N 
ATOM     54  C37 UNL A   1      30.510  22.453  57.218  1.00  0.00    +0.000 C 
ATOM     55  C38 UNL A   1      31.243  22.974  56.014  1.00  0.00    +0.000 C 
ATOM     67  C45 UNL A   1      30.686  23.952  55.276  1.00  0.00    +0.000 C 
ATOM     68  C46 UNL A   1      31.257  24.528  54.062  1.00  0.00    +0.000 C 
ATOM     69  C47 UNL A   1      30.431  25.480  53.599  1.00  0.00    +0.000 C 
ATOM     70  C48 UNL A   1      29.261  25.566  54.475  1.00  0.00    +0.000 C 
ATOM     71  N6  UNL A   1      29.504  24.630  55.449  1.00  0.00    +0.000 N 
ATOM     72  C49 UNL A   1      31.143  21.349  57.952  1.00  0.00    +0.000 C 
ATOM     73  C50 UNL A   1      30.240  21.094  58.887  1.00  0.00    +0.000 C 
ATOM     74  C51 UNL A   1      25.273  27.250  56.146  1.00  0.00    +0.000 C 
ATOM     75  C52 UNL A   1      26.035  27.421  55.076  1.00  0.00    +0.000 C 
ATOM    119  H21 UNL A   1      24.131  24.310  60.418  1.00  0.00    +0.000 H 
ATOM    120  H22 UNL A   1      25.720  22.443  61.306  1.00  0.00    +0.000 H 
ATOM    121  H23 UNL A   1      27.433  24.109  57.924  1.00  0.00    +0.000 H 
ATOM    122  H24 UNL A   1      32.151  24.248  53.631  1.00  0.00    +0.000 H 
ATOM    123  H25 UNL A   1      30.595  26.058  52.760  1.00  0.00    +0.000 H 
ATOM    124  H26 UNL A   1      28.889  24.461  56.198  1.00  0.00    +0.000 H 
ATOM    125  H27 UNL A   1      32.053  20.891  57.783  1.00  0.00    +0.000 H 
ATOM    126  H28 UNL A   1      30.319  20.333  59.580  1.00  0.00    +0.000 H 
ATOM    127  H29 UNL A   1      24.438  27.815  56.365  1.00  0.00    +0.000 H 
ATOM    128  H30 UNL A   1      25.909  28.073  54.286  1.00  0.00    +0.000 H 
ENDROOT
BRANCH   19   18
ATOM    129  H31 UNL A   1      28.994  28.979  54.151  1.00  0.00    +0.000 H 
ATOM    130  H32 UNL A   1      28.895  30.473  52.244  1.00  0.00    +0.000 H 
ATOM     76  C53 UNL A   1      28.650  28.631  53.242  1.00  0.00    +0.000 C 
ATOM     77  C54 UNL A   1      28.630  29.482  52.137  1.00  0.00    +0.000 C 
ATOM     15  C11 UNL A   1      28.250  28.990  50.883  1.00  0.00    +0.000 C 
ATOM     16  C12 UNL A   1      27.788  27.676  50.758  1.00  0.00    +0.000 C 
ATOM     17  C13 UNL A   1      27.752  26.844  51.877  1.00  0.00    +0.000 C 
ATOM     18  C14 UNL A   1      28.206  27.307  53.123  1.00  0.00    +0.000 C 
ATOM    117  H19 UNL A   1      27.476  27.323  49.841  1.00  0.00    +0.000 H 
ATOM    118  H20 UNL A   1      27.389  25.882  51.788  1.00  0.00    +0.000 H 
BRANCH   15   13
ATOM     13  C10 UNL A   1      28.281  29.845  49.674  1.00  0.00    +0.000 C 
ATOM     14  O2  UNL A   1      28.425  31.058  49.795  1.00  0.00    +0.000 O 
BRANCH   13   12
ATOM    116  H18 UNL A   1      28.953  28.878  48.063  1.00  0.00    +0.000 H 
ATOM     12  N2  UNL A   1      28.141  29.296  48.431  1.00  0.00    +0.000 N 
BRANCH   12   11
ATOM    114  H16 UNL A   1      26.998  28.328  47.008  1.00  0.00    +0.000 H 
ATOM     11  C9  UNL A   1      26.969  29.238  47.570  1.00  0.00    +0.000 C 
ATOM    115  H17 UNL A   1      26.100  29.283  48.192  1.00  0.00    +0.000 H 
BRANCH   11   10
ATOM    113  H15 UNL A   1      26.770  29.990  45.625  1.00  0.00    +0.000 H 
ATOM     10  C8  UNL A   1      26.911  30.414  46.598  1.00  0.00    +0.000 C 
ATOM    112  H14 UNL A   1      27.823  30.966  46.691  1.00  0.00    +0.000 H 
BRANCH   10    9
ATOM      9  C7  UNL A   1      25.745  31.380  46.819  1.00  0.00    +0.000 C 
ATOM    110  H12 UNL A   1      25.273  31.553  45.875  1.00  0.00    +0.000 H 
ATOM    111  H13 UNL A   1      25.102  30.912  47.537  1.00  0.00    +0.000 H 
BRANCH    9    8
ATOM    108  H10 UNL A   1      25.594  32.864  48.328  1.00  0.00    +0.000 H 
ATOM    109  H11 UNL A   1      27.195  32.711  47.544  1.00  0.00    +0.000 H 
ATOM      8  C6  UNL A   1      26.133  32.736  47.412  1.00  0.00    +0.000 C 
BRANCH    8    7
ATOM    106  H8  UNL A   1      25.212  34.619  47.056  1.00  0.00    +0.000 H 
ATOM    107  H9  UNL A   1      26.788  34.370  46.259  1.00  0.00    +0.000 H 
ATOM      7  C5  UNL A   1      25.841  33.944  46.515  1.00  0.00    +0.000 C 
BRANCH    7    6
ATOM    105  H7  UNL A   1      25.295  32.558  44.987  1.00  0.00    +0.000 H 
ATOM      6  C4  UNL A   1      25.146  33.598  45.192  1.00  0.00    +0.000 C 
ATOM    104  H6  UNL A   1      25.565  34.195  44.409  1.00  0.00    +0.000 H 
BRANCH    6    5
ATOM      5  N1  UNL A   1      23.723  33.856  45.277  1.00  0.00    +0.000 N 
ATOM    103  H5  UNL A   1      23.454  34.701  45.707  1.00  0.00    +0.000 H 
BRANCH    5    3
ATOM      3  C3  UNL A   1      22.713  33.050  44.823  1.00  0.00    +0.000 C 
ATOM      4  O1  UNL A   1      22.798  32.649  43.662  1.00  0.00    +0.000 O 
BRANCH    3    2
ATOM      2  C2  UNL A   1      21.539  32.721  45.763  1.00  0.00    +0.000 C 
ATOM    102  H4  UNL A   1      20.924  33.592  45.849  1.00  0.00    +0.000 H 
BRANCH    2    1
ATOM      1  C1  UNL A   1      22.113  32.344  47.139  1.00  0.00    +0.000 C 
ATOM     99  H1  UNL A   1      22.828  31.556  47.023  1.00  0.00    +0.000 H 
ATOM    100  H2  UNL A   1      21.320  32.015  47.778  1.00  0.00    +0.000 H 
ATOM    101  H3  UNL A   1      22.589  33.198  47.573  1.00  0.00    +0.000 H 
ENDBRANCH    2    1
BRANCH    2   78
ATOM    131  H33 UNL A   1      21.890  30.020  45.439  1.00  0.00    +0.000 H 
ATOM    132  H34 UNL A   1      20.289  28.318  44.793  1.00  0.00    +0.000 H 
ATOM    133  H35 UNL A   1      17.986  26.889  44.268  1.00  0.00    +0.000 H 
ATOM    134  H36 UNL A   1      14.178  27.709  42.708  1.00  0.00    +0.000 H 
ATOM    135  H37 UNL A   1      14.651  30.098  42.725  1.00  0.00    +0.000 H 
ATOM    138  H40 UNL A   1      19.075  33.021  44.624  1.00  0.00    +0.000 H 
ATOM     78  C55 UNL A   1      20.579  31.651  45.214  1.00  0.00    +0.000 C 
ATOM     79  C56 UNL A   1      20.932  30.299  45.173  1.00  0.00    +0.000 C 
ATOM     80  C57 UNL A   1      20.018  29.313  44.778  1.00  0.00    +0.000 C 
ATOM     81  C58 UNL A   1      18.723  29.686  44.363  1.00  0.00    +0.000 C 
ATOM     82  C59 UNL A   1      17.560  28.956  43.998  1.00  0.00    +0.000 C 
ATOM     83  C60 UNL A   1      17.277  27.574  43.961  1.00  0.00    +0.000 C 
ATOM     84  C61 UNL A   1      16.036  27.140  43.506  1.00  0.00    +0.000 C 
ATOM     85 Cl1  UNL A   1      15.685  25.454  43.477  1.00  0.00    +0.000 Cl
ATOM     86  C62 UNL A   1      15.086  28.049  43.061  1.00  0.00    +0.000 C 
ATOM     87  C63 UNL A   1      15.347  29.426  43.083  1.00  0.00    +0.000 C 
ATOM     88  C64 UNL A   1      16.579  29.878  43.603  1.00  0.00    +0.000 C 
ATOM     89  N7  UNL A   1      17.115  31.159  43.764  1.00  0.00    +0.000 N 
ATOM     97  C69 UNL A   1      18.416  31.036  44.268  1.00  0.00    +0.000 C 
ATOM     98  C70 UNL A   1      19.328  32.023  44.694  1.00  0.00    +0.000 C 
BRANCH   89   90
ATOM     90  C65 UNL A   1      16.505  32.407  43.469  1.00  0.00    +0.000 C 
ATOM     91  O3  UNL A   1      16.310  33.150  44.441  1.00  0.00    +0.000 O 
BRANCH   90   92
ATOM    136  H38 UNL A   1      15.060  34.715  42.433  1.00  0.00    +0.000 H 
ATOM    137  H39 UNL A   1      15.999  32.609  39.028  1.00  0.00    +0.000 H 
ATOM     92  C66 UNL A   1      16.060  32.827  42.148  1.00  0.00    +0.000 C 
ATOM     93  C67 UNL A   1      15.404  33.988  41.786  1.00  0.00    +0.000 C 
ATOM     94  O4  UNL A   1      15.289  34.010  40.426  1.00  0.00    +0.000 O 
ATOM     95  C68 UNL A   1      15.907  32.870  40.022  1.00  0.00    +0.000 C 
ATOM     96  N8  UNL A   1      16.377  32.126  40.993  1.00  0.00    +0.000 N 
ENDBRANCH   90   92
ENDBRANCH   89   90
ENDBRANCH    2   78
ENDBRANCH    3    2
ENDBRANCH    5    3
ENDBRANCH    6    5
ENDBRANCH    7    6
ENDBRANCH    8    7
ENDBRANCH    9    8
ENDBRANCH   10    9
ENDBRANCH   11   10
ENDBRANCH   12   11
ENDBRANCH   13   12
ENDBRANCH   15   13
ENDBRANCH   19   18
BRANCH   23   24
ATOM     33  C24 UNL A   1      22.612  25.759  58.099  1.00  0.00    +0.000 C 
ATOM     34  F5  UNL A   1      22.584  24.590  57.443  1.00  0.00    +0.000 F 
ATOM     24  C19 UNL A   1      23.838  26.341  58.457  1.00  0.00    +0.000 C 
ATOM     25  C20 UNL A   1      23.809  27.566  59.138  1.00  0.00    +0.000 C 
ATOM     26  F1  UNL A   1      24.954  28.158  59.512  1.00  0.00    +0.000 F 
ATOM     27  C21 UNL A   1      22.602  28.176  59.466  1.00  0.00    +0.000 C 
ATOM     28  F2  UNL A   1      22.599  29.329  60.151  1.00  0.00    +0.000 F 
ATOM     29  C22 UNL A   1      21.402  27.590  59.094  1.00  0.00    +0.000 C 
ATOM     30  F3  UNL A   1      20.239  28.183  59.402  1.00  0.00    +0.000 F 
ATOM     31  C23 UNL A   1      21.406  26.384  58.407  1.00  0.00    +0.000 C 
ATOM     32  F4  UNL A   1      20.248  25.822  58.037  1.00  0.00    +0.000 F 
ENDBRANCH   23   24
BRANCH   40   41
ATOM     41  C30 UNL A   1      28.101  21.004  60.775  1.00  0.00    +0.000 C 
ATOM     42  C31 UNL A   1      28.608  21.300  62.049  1.00  0.00    +0.000 C 
ATOM     43  F6  UNL A   1      29.127  22.510  62.305  1.00  0.00    +0.000 F 
ATOM     44  C32 UNL A   1      28.627  20.335  63.051  1.00  0.00    +0.000 C 
ATOM     45  F7  UNL A   1      29.164  20.622  64.245  1.00  0.00    +0.000 F 
ATOM     46  C33 UNL A   1      28.110  19.071  62.810  1.00  0.00    +0.000 C 
ATOM     47  F8  UNL A   1      28.131  18.142  63.776  1.00  0.00    +0.000 F 
ATOM     48  C34 UNL A   1      27.582  18.765  61.564  1.00  0.00    +0.000 C 
ATOM     49  F9  UNL A   1      27.073  17.547  61.334  1.00  0.00    +0.000 F 
ATOM     50  C35 UNL A   1      27.585  19.720  60.552  1.00  0.00    +0.000 C 
ATOM     51  F10 UNL A   1      27.083  19.391  59.352  1.00  0.00    +0.000 F 
ENDBRANCH   40   41
BRANCH   55   56
ATOM     65  C44 UNL A   1      33.757  22.943  56.096  1.00  0.00    +0.000 C 
ATOM     66  F15 UNL A   1      33.738  24.002  56.917  1.00  0.00    +0.000 F 
ATOM     56  C39 UNL A   1      32.556  22.403  55.616  1.00  0.00    +0.000 C 
ATOM     57  C40 UNL A   1      32.632  21.300  54.755  1.00  0.00    +0.000 C 
ATOM     58  F11 UNL A   1      31.508  20.737  54.286  1.00  0.00    +0.000 F 
ATOM     59  C41 UNL A   1      33.860  20.742  54.407  1.00  0.00    +0.000 C 
ATOM     60  F12 UNL A   1      33.903  19.659  53.621  1.00  0.00    +0.000 F 
ATOM     61  C42 UNL A   1      35.037  21.295  54.890  1.00  0.00    +0.000 C 
ATOM     62  F13 UNL A   1      36.218  20.760  54.556  1.00  0.00    +0.000 F 
ATOM     63  C43 UNL A   1      34.987  22.401  55.726  1.00  0.00    +0.000 C 
ATOM     64  F14 UNL A   1      36.122  22.947  56.184  1.00  0.00    +0.000 F 
ENDBRANCH   55   56
TORSDOF 19
ENDMDL
MODEL 9
REMARK VINA RESULT:     -11.4     25.998     30.857
ROOT
ATOM     19  C15 UNL A   1      43.422  16.136  49.961  1.00  0.00    +0.000 C 
ATOM     20  C16 UNL A   1      44.056  17.495  49.868  1.00  0.00    +0.000 C 
ATOM     21  N3  UNL A   1      44.629  18.072  48.841  1.00  0.00    +0.000 N 
ATOM     22  C17 UNL A   1      45.027  19.326  49.283  1.00  0.00    +0.000 C 
ATOM     23  C18 UNL A   1      45.724  20.276  48.615  1.00  0.00    +0.000 C 
ATOM     35  C25 UNL A   1      46.178  20.147  47.255  1.00  0.00    +0.000 C 
ATOM     36  C26 UNL A   1      46.918  21.042  46.501  1.00  0.00    +0.000 C 
ATOM     37  C27 UNL A   1      47.101  20.495  45.226  1.00  0.00    +0.000 C 
ATOM     38  C28 UNL A   1      46.508  19.244  45.198  1.00  0.00    +0.000 C 
ATOM     39  N4  UNL A   1      45.937  19.047  46.446  1.00  0.00    +0.000 N 
ATOM     40  C29 UNL A   1      46.466  18.294  44.117  1.00  0.00    +0.000 C 
ATOM     52  C36 UNL A   1      45.855  17.086  44.166  1.00  0.00    +0.000 C 
ATOM     53  N5  UNL A   1      45.152  16.504  45.211  1.00  0.00    +0.000 N 
ATOM     54  C37 UNL A   1      44.729  15.349  44.762  1.00  0.00    +0.000 C 
ATOM     55  C38 UNL A   1      43.935  14.288  45.472  1.00  0.00    +0.000 C 
ATOM     67  C45 UNL A   1      43.606  14.467  46.765  1.00  0.00    +0.000 C 
ATOM     68  C46 UNL A   1      42.877  13.511  47.594  1.00  0.00    +0.000 C 
ATOM     69  C47 UNL A   1      42.726  14.027  48.825  1.00  0.00    +0.000 C 
ATOM     70  C48 UNL A   1      43.366  15.342  48.876  1.00  0.00    +0.000 C 
ATOM     71  N6  UNL A   1      43.852  15.525  47.605  1.00  0.00    +0.000 N 
ATOM     72  C49 UNL A   1      45.104  15.073  43.369  1.00  0.00    +0.000 C 
ATOM     73  C50 UNL A   1      45.825  16.143  43.067  1.00  0.00    +0.000 C 
ATOM     74  C51 UNL A   1      44.582  19.451  50.656  1.00  0.00    +0.000 C 
ATOM     75  C52 UNL A   1      44.026  18.327  51.082  1.00  0.00    +0.000 C 
ATOM    119  H21 UNL A   1      47.273  21.955  46.824  1.00  0.00    +0.000 H 
ATOM    120  H22 UNL A   1      47.592  20.948  44.440  1.00  0.00    +0.000 H 
ATOM    121  H23 UNL A   1      45.436  18.244  46.717  1.00  0.00    +0.000 H 
ATOM    122  H24 UNL A   1      42.534  12.589  47.284  1.00  0.00    +0.000 H 
ATOM    123  H25 UNL A   1      42.235  13.568  49.609  1.00  0.00    +0.000 H 
ATOM    124  H26 UNL A   1      44.332  16.337  47.324  1.00  0.00    +0.000 H 
ATOM    125  H27 UNL A   1      44.868  14.259  42.779  1.00  0.00    +0.000 H 
ATOM    126  H28 UNL A   1      46.303  16.286  42.164  1.00  0.00    +0.000 H 
ATOM    127  H29 UNL A   1      44.685  20.305  51.226  1.00  0.00    +0.000 H 
ATOM    128  H30 UNL A   1      43.666  18.094  52.021  1.00  0.00    +0.000 H 
ENDROOT
BRANCH   19   18
ATOM    129  H31 UNL A   1      40.941  16.575  50.914  1.00  0.00    +0.000 H 
ATOM    130  H32 UNL A   1      39.995  15.870  53.033  1.00  0.00    +0.000 H 
ATOM     76  C53 UNL A   1      41.503  16.003  51.564  1.00  0.00    +0.000 C 
ATOM     77  C54 UNL A   1      40.944  15.567  52.765  1.00  0.00    +0.000 C 
ATOM     15  C11 UNL A   1      41.671  14.717  53.607  1.00  0.00    +0.000 C 
ATOM     16  C12 UNL A   1      42.995  14.392  53.297  1.00  0.00    +0.000 C 
ATOM     17  C13 UNL A   1      43.573  14.879  52.125  1.00  0.00    +0.000 C 
ATOM     18  C14 UNL A   1      42.825  15.667  51.236  1.00  0.00    +0.000 C 
ATOM    117  H19 UNL A   1      43.543  13.793  53.934  1.00  0.00    +0.000 H 
ATOM    118  H20 UNL A   1      44.558  14.657  51.909  1.00  0.00    +0.000 H 
BRANCH   15   13
ATOM     13  C10 UNL A   1      41.086  14.179  54.857  1.00  0.00    +0.000 C 
ATOM     14  O2  UNL A   1      41.812  13.975  55.825  1.00  0.00    +0.000 O 
BRANCH   13   12
ATOM    116  H18 UNL A   1      39.274  14.330  55.681  1.00  0.00    +0.000 H 
ATOM     12  N2  UNL A   1      39.751  13.899  54.935  1.00  0.00    +0.000 N 
BRANCH   12   11
ATOM    114  H16 UNL A   1      38.161  12.605  54.671  1.00  0.00    +0.000 H 
ATOM     11  C9  UNL A   1      38.929  13.057  54.077  1.00  0.00    +0.000 C 
ATOM    115  H17 UNL A   1      38.512  13.675  53.309  1.00  0.00    +0.000 H 
BRANCH   11   10
ATOM    113  H15 UNL A   1      39.257  11.034  53.649  1.00  0.00    +0.000 H 
ATOM     10  C8  UNL A   1      39.742  11.955  53.403  1.00  0.00    +0.000 C 
ATOM    112  H14 UNL A   1      40.747  12.014  53.768  1.00  0.00    +0.000 H 
BRANCH   10    9
ATOM      9  C7  UNL A   1      39.785  12.025  51.876  1.00  0.00    +0.000 C 
ATOM    110  H12 UNL A   1      39.135  11.268  51.490  1.00  0.00    +0.000 H 
ATOM    111  H13 UNL A   1      39.484  13.018  51.613  1.00  0.00    +0.000 H 
BRANCH    9    8
ATOM    108  H10 UNL A   1      41.040  11.569  50.227  1.00  0.00    +0.000 H 
ATOM    109  H11 UNL A   1      41.701  12.740  51.407  1.00  0.00    +0.000 H 
ATOM      8  C6  UNL A   1      41.170  11.822  51.258  1.00  0.00    +0.000 C 
BRANCH    8    7
ATOM    106  H8  UNL A   1      41.754  10.672  52.950  1.00  0.00    +0.000 H 
ATOM    107  H9  UNL A   1      41.812   9.821  51.383  1.00  0.00    +0.000 H 
ATOM      7  C5  UNL A   1      42.019  10.726  51.914  1.00  0.00    +0.000 C 
BRANCH    7    6
ATOM    105  H7  UNL A   1      43.929  11.049  52.807  1.00  0.00    +0.000 H 
ATOM      6  C4  UNL A   1      43.533  10.953  51.818  1.00  0.00    +0.000 C 
ATOM    104  H6  UNL A   1      43.718  11.844  51.254  1.00  0.00    +0.000 H 
BRANCH    6    5
ATOM      5  N1  UNL A   1      44.179   9.833  51.164  1.00  0.00    +0.000 N 
ATOM    103  H5  UNL A   1      43.587   9.135  50.799  1.00  0.00    +0.000 H 
BRANCH    5    3
ATOM      3  C3  UNL A   1      45.525   9.643  51.000  1.00  0.00    +0.000 C 
ATOM      4  O1  UNL A   1      46.207   9.569  52.023  1.00  0.00    +0.000 O 
BRANCH    3    2
ATOM      2  C2  UNL A   1      46.102   9.564  49.575  1.00  0.00    +0.000 C 
ATOM    102  H4  UNL A   1      45.294   9.396  48.895  1.00  0.00    +0.000 H 
BRANCH    2    1
ATOM      1  C1  UNL A   1      47.089   8.385  49.520  1.00  0.00    +0.000 C 
ATOM     99  H1  UNL A   1      48.000   8.660  50.009  1.00  0.00    +0.000 H 
ATOM    100  H2  UNL A   1      47.292   8.139  48.498  1.00  0.00    +0.000 H 
ATOM    101  H3  UNL A   1      46.660   7.537  50.011  1.00  0.00    +0.000 H 
ENDBRANCH    2    1
BRANCH    2   78
ATOM    131  H33 UNL A   1      44.918  11.837  48.599  1.00  0.00    +0.000 H 
ATOM    132  H34 UNL A   1      45.906  13.980  48.041  1.00  0.00    +0.000 H 
ATOM    133  H35 UNL A   1      47.568  16.174  47.838  1.00  0.00    +0.000 H 
ATOM    134  H36 UNL A   1      51.697  16.856  47.536  1.00  0.00    +0.000 H 
ATOM    135  H37 UNL A   1      52.148  14.497  47.943  1.00  0.00    +0.000 H 
ATOM    138  H40 UNL A   1      48.732  10.201  49.208  1.00  0.00    +0.000 H 
ATOM     78  C55 UNL A   1      46.729  10.878  49.079  1.00  0.00    +0.000 C 
ATOM     79  C56 UNL A   1      45.942  11.954  48.657  1.00  0.00    +0.000 C 
ATOM     80  C57 UNL A   1      46.510  13.188  48.312  1.00  0.00    +0.000 C 
ATOM     81  C58 UNL A   1      47.910  13.345  48.338  1.00  0.00    +0.000 C 
ATOM     82  C59 UNL A   1      48.779  14.451  48.139  1.00  0.00    +0.000 C 
ATOM     83  C60 UNL A   1      48.536  15.817  47.881  1.00  0.00    +0.000 C 
ATOM     84  C61 UNL A   1      49.609  16.680  47.682  1.00  0.00    +0.000 C 
ATOM     85 Cl1  UNL A   1      49.312  18.349  47.383  1.00  0.00    +0.000 Cl
ATOM     86  C62 UNL A   1      50.913  16.206  47.705  1.00  0.00    +0.000 C 
ATOM     87  C63 UNL A   1      51.179  14.852  47.954  1.00  0.00    +0.000 C 
ATOM     88  C64 UNL A   1      50.099  13.984  48.221  1.00  0.00    +0.000 C 
ATOM     89  N7  UNL A   1      50.045  12.617  48.508  1.00  0.00    +0.000 N 
ATOM     97  C69 UNL A   1      48.701  12.239  48.619  1.00  0.00    +0.000 C 
ATOM     98  C70 UNL A   1      48.125  11.008  48.994  1.00  0.00    +0.000 C 
BRANCH   89   90
ATOM     90  C65 UNL A   1      51.127  11.709  48.658  1.00  0.00    +0.000 C 
ATOM     91  O3  UNL A   1      51.607  11.271  47.603  1.00  0.00    +0.000 O 
BRANCH   90   92
ATOM    136  H38 UNL A   1      50.671   9.357  50.315  1.00  0.00    +0.000 H 
ATOM    137  H39 UNL A   1      53.661  11.337  52.327  1.00  0.00    +0.000 H 
ATOM     92  C66 UNL A   1      51.651  11.237  49.932  1.00  0.00    +0.000 C 
ATOM     93  C67 UNL A   1      51.370  10.061  50.599  1.00  0.00    +0.000 C 
ATOM     94  O4  UNL A   1      52.177   9.987  51.698  1.00  0.00    +0.000 O 
ATOM     95  C68 UNL A   1      52.932  11.114  51.631  1.00  0.00    +0.000 C 
ATOM     96  N8  UNL A   1      52.664  11.896  50.615  1.00  0.00    +0.000 N 
ENDBRANCH   90   92
ENDBRANCH   89   90
ENDBRANCH    2   78
ENDBRANCH    3    2
ENDBRANCH    5    3
ENDBRANCH    6    5
ENDBRANCH    7    6
ENDBRANCH    8    7
ENDBRANCH    9    8
ENDBRANCH   10    9
ENDBRANCH   11   10
ENDBRANCH   12   11
ENDBRANCH   13   12
ENDBRANCH   15   13
ENDBRANCH   19   18
BRANCH   23   24
ATOM     33  C24 UNL A   1      47.221  21.632  50.130  1.00  0.00    +0.000 C 
ATOM     34  F5  UNL A   1      48.079  20.603  50.188  1.00  0.00    +0.000 F 
ATOM     24  C19 UNL A   1      46.056  21.540  49.354  1.00  0.00    +0.000 C 
ATOM     25  C20 UNL A   1      45.191  22.644  49.333  1.00  0.00    +0.000 C 
ATOM     26  F1  UNL A   1      44.069  22.608  48.597  1.00  0.00    +0.000 F 
ATOM     27  C21 UNL A   1      45.489  23.802  50.045  1.00  0.00    +0.000 C 
ATOM     28  F2  UNL A   1      44.666  24.858  49.979  1.00  0.00    +0.000 F 
ATOM     29  C22 UNL A   1      46.641  23.869  50.814  1.00  0.00    +0.000 C 
ATOM     30  F3  UNL A   1      46.923  24.981  51.507  1.00  0.00    +0.000 F 
ATOM     31  C23 UNL A   1      47.504  22.783  50.861  1.00  0.00    +0.000 C 
ATOM     32  F4  UNL A   1      48.611  22.843  51.613  1.00  0.00    +0.000 F 
ENDBRANCH   23   24
BRANCH   40   41
ATOM     41  C30 UNL A   1      47.163  18.653  42.837  1.00  0.00    +0.000 C 
ATOM     42  C31 UNL A   1      46.456  19.155  41.735  1.00  0.00    +0.000 C 
ATOM     43  F6  UNL A   1      45.123  19.294  41.795  1.00  0.00    +0.000 F 
ATOM     44  C32 UNL A   1      47.111  19.472  40.550  1.00  0.00    +0.000 C 
ATOM     45  F7  UNL A   1      46.410  19.901  39.492  1.00  0.00    +0.000 F 
ATOM     46  C33 UNL A   1      48.487  19.326  40.455  1.00  0.00    +0.000 C 
ATOM     47  F8  UNL A   1      49.117  19.630  39.312  1.00  0.00    +0.000 F 
ATOM     48  C34 UNL A   1      49.210  18.853  41.541  1.00  0.00    +0.000 C 
ATOM     49  F9  UNL A   1      50.540  18.721  41.453  1.00  0.00    +0.000 F 
ATOM     50  C35 UNL A   1      48.553  18.511  42.720  1.00  0.00    +0.000 C 
ATOM     51  F10 UNL A   1      49.275  18.040  43.747  1.00  0.00    +0.000 F 
ENDBRANCH   40   41
BRANCH   55   56
ATOM     65  C44 UNL A   1      42.250  12.884  44.241  1.00  0.00    +0.000 C 
ATOM     66  F15 UNL A   1      41.346  13.865  44.372  1.00  0.00    +0.000 F 
ATOM     56  C39 UNL A   1      43.537  13.039  44.774  1.00  0.00    +0.000 C 
ATOM     57  C40 UNL A   1      44.442  11.980  44.616  1.00  0.00    +0.000 C 
ATOM     58  F11 UNL A   1      45.692  12.091  45.091  1.00  0.00    +0.000 F 
ATOM     59  C41 UNL A   1      44.082  10.822  43.932  1.00  0.00    +0.000 C 
ATOM     60  F12 UNL A   1      44.980   9.844  43.754  1.00  0.00    +0.000 F 
ATOM     61  C42 UNL A   1      42.801  10.687  43.418  1.00  0.00    +0.000 C 
ATOM     62  F13 UNL A   1      42.454   9.574  42.760  1.00  0.00    +0.000 F 
ATOM     63  C43 UNL A   1      41.882  11.713  43.581  1.00  0.00    +0.000 C 
ATOM     64  F14 UNL A   1      40.638  11.582  43.097  1.00  0.00    +0.000 F 
ENDBRANCH   55   56
TORSDOF 19
ENDMDL
MODEL 10
REMARK VINA RESULT:     -11.4     28.147     33.748
ROOT
ATOM     19  C15 UNL A   1      46.505  11.557  47.279  1.00  0.00    +0.000 C 
ATOM     20  C16 UNL A   1      46.626  10.588  48.420  1.00  0.00    +0.000 C 
ATOM     21  N3  UNL A   1      47.416  10.635  49.464  1.00  0.00    +0.000 N 
ATOM     22  C17 UNL A   1      47.114   9.510  50.219  1.00  0.00    +0.000 C 
ATOM     23  C18 UNL A   1      47.705   9.073  51.357  1.00  0.00    +0.000 C 
ATOM     35  C25 UNL A   1      48.792   9.744  52.021  1.00  0.00    +0.000 C 
ATOM     36  C26 UNL A   1      49.477   9.363  53.161  1.00  0.00    +0.000 C 
ATOM     37  C27 UNL A   1      50.436  10.342  53.444  1.00  0.00    +0.000 C 
ATOM     38  C28 UNL A   1      50.374  11.314  52.459  1.00  0.00    +0.000 C 
ATOM     39  N4  UNL A   1      49.354  10.940  51.598  1.00  0.00    +0.000 N 
ATOM     40  C29 UNL A   1      51.184  12.494  52.309  1.00  0.00    +0.000 C 
ATOM     52  C36 UNL A   1      51.054  13.406  51.315  1.00  0.00    +0.000 C 
ATOM     53  N5  UNL A   1      50.152  13.426  50.260  1.00  0.00    +0.000 N 
ATOM     54  C37 UNL A   1      50.405  14.523  49.591  1.00  0.00    +0.000 C 
ATOM     55  C38 UNL A   1      49.751  15.044  48.342  1.00  0.00    +0.000 C 
ATOM     67  C45 UNL A   1      48.783  14.318  47.753  1.00  0.00    +0.000 C 
ATOM     68  C46 UNL A   1      48.088  14.673  46.520  1.00  0.00    +0.000 C 
ATOM     69  C47 UNL A   1      47.186  13.719  46.235  1.00  0.00    +0.000 C 
ATOM     70  C48 UNL A   1      47.256  12.675  47.258  1.00  0.00    +0.000 C 
ATOM     71  N6  UNL A   1      48.223  13.120  48.124  1.00  0.00    +0.000 N 
ATOM     72  C49 UNL A   1      51.492  15.334  50.156  1.00  0.00    +0.000 C 
ATOM     73  C50 UNL A   1      51.881  14.588  51.180  1.00  0.00    +0.000 C 
ATOM     74  C51 UNL A   1      46.031   8.827  49.544  1.00  0.00    +0.000 C 
ATOM     75  C52 UNL A   1      45.730   9.422  48.400  1.00  0.00    +0.000 C 
ATOM    119  H21 UNL A   1      49.310   8.505  53.708  1.00  0.00    +0.000 H 
ATOM    120  H22 UNL A   1      51.080  10.341  54.250  1.00  0.00    +0.000 H 
ATOM    121  H23 UNL A   1      49.071  11.447  50.802  1.00  0.00    +0.000 H 
ATOM    122  H24 UNL A   1      48.262  15.520  45.958  1.00  0.00    +0.000 H 
ATOM    123  H25 UNL A   1      46.546  13.723  45.425  1.00  0.00    +0.000 H 
ATOM    124  H26 UNL A   1      48.490  12.626  48.933  1.00  0.00    +0.000 H 
ATOM    125  H27 UNL A   1      51.857  16.246  49.840  1.00  0.00    +0.000 H 
ATOM    126  H28 UNL A   1      52.671  14.818  51.802  1.00  0.00    +0.000 H 
ATOM    127  H29 UNL A   1      45.555   7.987  49.909  1.00  0.00    +0.000 H 
ATOM    128  H30 UNL A   1      45.045   9.140  47.680  1.00  0.00    +0.000 H 
ENDROOT
BRANCH   19   18
ATOM    129  H31 UNL A   1      46.887  10.229  44.967  1.00  0.00    +0.000 H 
ATOM    130  H32 UNL A   1      45.324   9.899  43.142  1.00  0.00    +0.000 H 
ATOM     76  C53 UNL A   1      45.925  10.594  45.041  1.00  0.00    +0.000 C 
ATOM     77  C54 UNL A   1      45.016  10.370  44.007  1.00  0.00    +0.000 C 
ATOM     15  C11 UNL A   1      43.687  10.785  44.142  1.00  0.00    +0.000 C 
ATOM     16  C12 UNL A   1      43.294  11.519  45.267  1.00  0.00    +0.000 C 
ATOM     17  C13 UNL A   1      44.220  11.794  46.273  1.00  0.00    +0.000 C 
ATOM     18  C14 UNL A   1      45.537  11.313  46.180  1.00  0.00    +0.000 C 
ATOM    117  H19 UNL A   1      42.323  11.854  45.352  1.00  0.00    +0.000 H 
ATOM    118  H20 UNL A   1      43.936  12.356  47.091  1.00  0.00    +0.000 H 
BRANCH   15   13
ATOM     13  C10 UNL A   1      42.677  10.505  43.095  1.00  0.00    +0.000 C 
ATOM     14  O2  UNL A   1      42.663   9.407  42.547  1.00  0.00    +0.000 O 
BRANCH   13   12
ATOM    116  H18 UNL A   1      41.077  11.660  43.399  1.00  0.00    +0.000 H 
ATOM     12  N2  UNL A   1      41.771  11.461  42.730  1.00  0.00    +0.000 N 
BRANCH   12   11
ATOM    114  H16 UNL A   1      42.562  12.050  40.914  1.00  0.00    +0.000 H 
ATOM     11  C9  UNL A   1      41.681  12.228  41.496  1.00  0.00    +0.000 C 
ATOM    115  H17 UNL A   1      40.801  11.912  40.975  1.00  0.00    +0.000 H 
BRANCH   11   10
ATOM    113  H15 UNL A   1      42.097  13.916  42.664  1.00  0.00    +0.000 H 
ATOM     10  C8  UNL A   1      41.560  13.727  41.757  1.00  0.00    +0.000 C 
ATOM    112  H14 UNL A   1      40.519  13.969  41.824  1.00  0.00    +0.000 H 
BRANCH   10    9
ATOM      9  C7  UNL A   1      42.189  14.623  40.689  1.00  0.00    +0.000 C 
ATOM    110  H12 UNL A   1      42.871  14.029  40.117  1.00  0.00    +0.000 H 
ATOM    111  H13 UNL A   1      41.378  15.014  40.111  1.00  0.00    +0.000 H 
BRANCH    9    8
ATOM    108  H10 UNL A   1      43.958  15.781  40.868  1.00  0.00    +0.000 H 
ATOM    109  H11 UNL A   1      42.422  16.698  40.887  1.00  0.00    +0.000 H 
ATOM      8  C6  UNL A   1      42.952  15.834  41.230  1.00  0.00    +0.000 C 
BRANCH    8    7
ATOM    106  H8  UNL A   1      42.011  16.139  43.112  1.00  0.00    +0.000 H 
ATOM    107  H9  UNL A   1      43.393  15.012  43.117  1.00  0.00    +0.000 H 
ATOM      7  C5  UNL A   1      43.001  15.940  42.759  1.00  0.00    +0.000 C 
BRANCH    7    6
ATOM    105  H7  UNL A   1      43.355  17.720  43.881  1.00  0.00    +0.000 H 
ATOM      6  C4  UNL A   1      43.930  17.040  43.288  1.00  0.00    +0.000 C 
ATOM    104  H6  UNL A   1      44.375  17.552  42.461  1.00  0.00    +0.000 H 
BRANCH    6    5
ATOM      5  N1  UNL A   1      44.977  16.473  44.115  1.00  0.00    +0.000 N 
ATOM    103  H5  UNL A   1      45.121  15.502  44.039  1.00  0.00    +0.000 H 
BRANCH    5    3
ATOM      3  C3  UNL A   1      45.787  17.146  44.990  1.00  0.00    +0.000 C 
ATOM      4  O1  UNL A   1      46.964  17.297  44.659  1.00  0.00    +0.000 O 
BRANCH    3    2
ATOM      2  C2  UNL A   1      45.200  17.642  46.324  1.00  0.00    +0.000 C 
ATOM    102  H4  UNL A   1      44.260  18.112  46.123  1.00  0.00    +0.000 H 
BRANCH    2    1
ATOM      1  C1  UNL A   1      46.178  18.661  46.932  1.00  0.00    +0.000 C 
ATOM     99  H1  UNL A   1      45.668  19.586  47.102  1.00  0.00    +0.000 H 
ATOM    100  H2  UNL A   1      46.993  18.821  46.256  1.00  0.00    +0.000 H 
ATOM    101  H3  UNL A   1      46.554  18.284  47.861  1.00  0.00    +0.000 H 
ENDBRANCH    2    1
BRANCH    2   78
ATOM    131  H33 UNL A   1      43.288  15.683  46.153  1.00  0.00    +0.000 H 
ATOM    132  H34 UNL A   1      42.890  13.778  47.600  1.00  0.00    +0.000 H 
ATOM    133  H35 UNL A   1      43.127  11.743  49.450  1.00  0.00    +0.000 H 
ATOM    134  H36 UNL A   1      44.900  11.239  53.219  1.00  0.00    +0.000 H 
ATOM    135  H37 UNL A   1      45.975  13.417  53.040  1.00  0.00    +0.000 H 
ATOM    138  H40 UNL A   1      46.142  17.171  48.843  1.00  0.00    +0.000 H 
ATOM     78  C55 UNL A   1      44.839  16.515  47.306  1.00  0.00    +0.000 C 
ATOM     79  C56 UNL A   1      43.849  15.572  47.013  1.00  0.00    +0.000 C 
ATOM     80  C57 UNL A   1      43.599  14.482  47.858  1.00  0.00    +0.000 C 
ATOM     81  C58 UNL A   1      44.322  14.350  49.060  1.00  0.00    +0.000 C 
ATOM     82  C59 UNL A   1      44.378  13.349  50.068  1.00  0.00    +0.000 C 
ATOM     83  C60 UNL A   1      43.746  12.094  50.198  1.00  0.00    +0.000 C 
ATOM     84  C61 UNL A   1      43.962  11.333  51.343  1.00  0.00    +0.000 C 
ATOM     85 Cl1  UNL A   1      43.203   9.795  51.494  1.00  0.00    +0.000 Cl
ATOM     86  C62 UNL A   1      44.766  11.809  52.369  1.00  0.00    +0.000 C 
ATOM     87  C63 UNL A   1      45.400  13.055  52.264  1.00  0.00    +0.000 C 
ATOM     88  C64 UNL A   1      45.238  13.803  51.079  1.00  0.00    +0.000 C 
ATOM     89  N7  UNL A   1      45.738  15.046  50.680  1.00  0.00    +0.000 N 
ATOM     97  C69 UNL A   1      45.205  15.358  49.423  1.00  0.00    +0.000 C 
ATOM     98  C70 UNL A   1      45.474  16.437  48.557  1.00  0.00    +0.000 C 
BRANCH   89   90
ATOM     90  C65 UNL A   1      46.623  15.902  51.388  1.00  0.00    +0.000 C 
ATOM     91  O3  UNL A   1      47.823  15.783  51.106  1.00  0.00    +0.000 O 
BRANCH   90   92
ATOM    136  H38 UNL A   1      45.454  15.637  54.043  1.00  0.00    +0.000 H 
ATOM    137  H39 UNL A   1      46.122  19.683  53.729  1.00  0.00    +0.000 H 
ATOM     92  C66 UNL A   1      46.224  16.839  52.429  1.00  0.00    +0.000 C 
ATOM     93  C67 UNL A   1      45.707  16.570  53.681  1.00  0.00    +0.000 C 
ATOM     94  O4  UNL A   1      45.588  17.749  54.360  1.00  0.00    +0.000 O 
ATOM     95  C68 UNL A   1      46.066  18.680  53.492  1.00  0.00    +0.000 C 
ATOM     96  N8  UNL A   1      46.450  18.205  52.334  1.00  0.00    +0.000 N 
ENDBRANCH   90   92
ENDBRANCH   89   90
ENDBRANCH    2   78
ENDBRANCH    3    2
ENDBRANCH    5    3
ENDBRANCH    6    5
ENDBRANCH    7    6
ENDBRANCH    8    7
ENDBRANCH    9    8
ENDBRANCH   10    9
ENDBRANCH   11   10
ENDBRANCH   12   11
ENDBRANCH   13   12
ENDBRANCH   15   13
ENDBRANCH   19   18
BRANCH   23   24
ATOM     33  C24 UNL A   1      46.156   7.797  52.890  1.00  0.00    +0.000 C 
ATOM     34  F5  UNL A   1      45.568   8.950  53.240  1.00  0.00    +0.000 F 
ATOM     24  C19 UNL A   1      47.199   7.791  51.951  1.00  0.00    +0.000 C 
ATOM     25  C20 UNL A   1      47.782   6.558  51.625  1.00  0.00    +0.000 C 
ATOM     26  F1  UNL A   1      48.774   6.497  50.723  1.00  0.00    +0.000 F 
ATOM     27  C21 UNL A   1      47.328   5.375  52.201  1.00  0.00    +0.000 C 
ATOM     28  F2  UNL A   1      47.876   4.204  51.847  1.00  0.00    +0.000 F 
ATOM     29  C22 UNL A   1      46.304   5.405  53.135  1.00  0.00    +0.000 C 
ATOM     30  F3  UNL A   1      45.873   4.266  53.698  1.00  0.00    +0.000 F 
ATOM     31  C23 UNL A   1      45.722   6.615  53.484  1.00  0.00    +0.000 C 
ATOM     32  F4  UNL A   1      44.739   6.646  54.395  1.00  0.00    +0.000 F 
ENDBRANCH   23   24
BRANCH   40   41
ATOM     41  C30 UNL A   1      52.270  12.735  53.316  1.00  0.00    +0.000 C 
ATOM     42  C31 UNL A   1      53.575  12.264  53.112  1.00  0.00    +0.000 C 
ATOM     43  F6  UNL A   1      53.871  11.551  52.015  1.00  0.00    +0.000 F 
ATOM     44  C32 UNL A   1      54.570  12.484  54.059  1.00  0.00    +0.000 C 
ATOM     45  F7  UNL A   1      55.797  11.980  53.869  1.00  0.00    +0.000 F 
ATOM     46  C33 UNL A   1      54.288  13.206  55.209  1.00  0.00    +0.000 C 
ATOM     47  F8  UNL A   1      55.248  13.415  56.122  1.00  0.00    +0.000 F 
ATOM     48  C34 UNL A   1      53.010  13.702  55.420  1.00  0.00    +0.000 C 
ATOM     49  F9  UNL A   1      52.740  14.408  56.526  1.00  0.00    +0.000 F 
ATOM     50  C35 UNL A   1      52.006  13.461  54.486  1.00  0.00    +0.000 C 
ATOM     51  F10 UNL A   1      50.775  13.938  54.725  1.00  0.00    +0.000 F 
ENDBRANCH   40   41
BRANCH   55   56
ATOM     65  C44 UNL A   1      49.563  17.540  48.092  1.00  0.00    +0.000 C 
ATOM     66  F15 UNL A   1      48.556  17.546  48.978  1.00  0.00    +0.000 F 
ATOM     56  C39 UNL A   1      50.180  16.332  47.739  1.00  0.00    +0.000 C 
ATOM     57  C40 UNL A   1      51.223  16.380  46.804  1.00  0.00    +0.000 C 
ATOM     58  F11 UNL A   1      51.857  15.252  46.449  1.00  0.00    +0.000 F 
ATOM     59  C41 UNL A   1      51.649  17.591  46.262  1.00  0.00    +0.000 C 
ATOM     60  F12 UNL A   1      52.679  17.614  45.407  1.00  0.00    +0.000 F 
ATOM     61  C42 UNL A   1      51.020  18.774  46.623  1.00  0.00    +0.000 C 
ATOM     62  F13 UNL A   1      51.429  19.938  46.103  1.00  0.00    +0.000 F 
ATOM     63  C43 UNL A   1      49.971  18.748  47.530  1.00  0.00    +0.000 C 
ATOM     64  F14 UNL A   1      49.352  19.886  47.871  1.00  0.00    +0.000 F 
ENDBRANCH   55   56
TORSDOF 19
ENDMDL
