MODEL 1
REMARK VINA RESULT:     -11.2      0.000      0.000
ROOT
ATOM     28  C23 UNL A   1      41.349  25.971  27.594  1.00  0.00    +0.000 C 
ATOM     29  C24 UNL A   1      40.669  27.074  28.353  1.00  0.00    +0.000 C 
ATOM     30  N4  UNL A   1      41.111  28.267  28.662  1.00  0.00    +0.000 N 
ATOM     31  C25 UNL A   1      40.062  28.902  29.312  1.00  0.00    +0.000 C 
ATOM     32  C26 UNL A   1      40.037  30.137  29.869  1.00  0.00    +0.000 C 
ATOM     44  C33 UNL A   1      41.157  31.040  29.892  1.00  0.00    +0.000 C 
ATOM     45  C34 UNL A   1      41.245  32.293  30.471  1.00  0.00    +0.000 C 
ATOM     46  C35 UNL A   1      42.521  32.807  30.213  1.00  0.00    +0.000 C 
ATOM     47  C36 UNL A   1      43.241  31.856  29.508  1.00  0.00    +0.000 C 
ATOM     48  N5  UNL A   1      42.390  30.780  29.311  1.00  0.00    +0.000 N 
ATOM     49  C37 UNL A   1      44.603  31.924  29.047  1.00  0.00    +0.000 C 
ATOM     61  C44 UNL A   1      45.239  30.951  28.351  1.00  0.00    +0.000 C 
ATOM     62  N6  UNL A   1      44.761  29.709  27.956  1.00  0.00    +0.000 N 
ATOM     63  C45 UNL A   1      45.747  29.131  27.315  1.00  0.00    +0.000 C 
ATOM     64  C46 UNL A   1      45.801  27.761  26.693  1.00  0.00    +0.000 C 
ATOM     76  C53 UNL A   1      44.732  26.947  26.794  1.00  0.00    +0.000 C 
ATOM     77  C54 UNL A   1      44.635  25.604  26.230  1.00  0.00    +0.000 C 
ATOM     78  C55 UNL A   1      43.402  25.123  26.452  1.00  0.00    +0.000 C 
ATOM     79  C56 UNL A   1      42.633  26.109  27.212  1.00  0.00    +0.000 C 
ATOM     80  N7  UNL A   1      43.515  27.148  27.396  1.00  0.00    +0.000 N 
ATOM     81  C57 UNL A   1      46.955  29.960  27.198  1.00  0.00    +0.000 C 
ATOM     82  C58 UNL A   1      46.604  31.044  27.876  1.00  0.00    +0.000 C 
ATOM     83  C59 UNL A   1      38.948  27.979  29.320  1.00  0.00    +0.000 C 
ATOM     84  C60 UNL A   1      39.291  26.811  28.798  1.00  0.00    +0.000 C 
ATOM    119  H27 UNL A   1      40.498  32.768  31.004  1.00  0.00    +0.000 H 
ATOM    120  H28 UNL A   1      42.866  33.736  30.498  1.00  0.00    +0.000 H 
ATOM    121  H29 UNL A   1      42.625  29.954  28.831  1.00  0.00    +0.000 H 
ATOM    122  H30 UNL A   1      45.393  25.104  25.738  1.00  0.00    +0.000 H 
ATOM    123  H31 UNL A   1      43.051  24.205  26.137  1.00  0.00    +0.000 H 
ATOM    124  H32 UNL A   1      43.293  27.957  27.910  1.00  0.00    +0.000 H 
ATOM    125  H33 UNL A   1      47.844  29.754  26.717  1.00  0.00    +0.000 H 
ATOM    126  H34 UNL A   1      47.223  31.852  28.044  1.00  0.00    +0.000 H 
ATOM    127  H35 UNL A   1      38.008  28.201  29.684  1.00  0.00    +0.000 H 
ATOM    128  H36 UNL A   1      38.739  25.943  28.723  1.00  0.00    +0.000 H 
ENDROOT
BRANCH   28   27
ATOM    129  H37 UNL A   1      39.201  25.859  26.010  1.00  0.00    +0.000 H 
ATOM    130  H38 UNL A   1      37.856  23.936  25.399  1.00  0.00    +0.000 H 
ATOM     27  C22 UNL A   1      40.578  24.768  27.189  1.00  0.00    +0.000 C 
ATOM    117  H25 UNL A   1      40.479  21.424  27.522  1.00  0.00    +0.000 H 
ATOM     86  C62 UNL A   1      38.714  23.810  25.960  1.00  0.00    +0.000 C 
ATOM     85  C61 UNL A   1      39.464  24.919  26.347  1.00  0.00    +0.000 C 
ATOM     24  C19 UNL A   1      39.124  22.528  26.334  1.00  0.00    +0.000 C 
ATOM     25  C20 UNL A   1      40.207  22.367  27.204  1.00  0.00    +0.000 C 
ATOM     26  C21 UNL A   1      40.922  23.485  27.643  1.00  0.00    +0.000 C 
ATOM    118  H26 UNL A   1      41.707  23.367  28.302  1.00  0.00    +0.000 H 
BRANCH   24   22
ATOM     22  C18 UNL A   1      38.428  21.319  25.835  1.00  0.00    +0.000 C 
ATOM     23  O2  UNL A   1      39.049  20.269  25.722  1.00  0.00    +0.000 O 
BRANCH   22   21
ATOM    116  H24 UNL A   1      36.652  22.234  25.674  1.00  0.00    +0.000 H 
ATOM     21  N3  UNL A   1      37.104  21.384  25.466  1.00  0.00    +0.000 N 
BRANCH   21   20
ATOM    114  H22 UNL A   1      36.223  20.618  23.772  1.00  0.00    +0.000 H 
ATOM    115  H23 UNL A   1      36.730  19.434  24.997  1.00  0.00    +0.000 H 
ATOM     20  C17 UNL A   1      36.276  20.385  24.816  1.00  0.00    +0.000 C 
BRANCH   20   19
ATOM    113  H21 UNL A   1      34.706  21.247  25.871  1.00  0.00    +0.000 H 
ATOM     19  C16 UNL A   1      34.857  20.316  25.365  1.00  0.00    +0.000 C 
ATOM    112  H20 UNL A   1      34.792  19.452  25.992  1.00  0.00    +0.000 H 
BRANCH   19   18
ATOM     18  C15 UNL A   1      33.727  20.229  24.338  1.00  0.00    +0.000 C 
ATOM    110  H18 UNL A   1      34.146  19.836  23.434  1.00  0.00    +0.000 H 
ATOM    111  H19 UNL A   1      32.983  19.616  24.800  1.00  0.00    +0.000 H 
BRANCH   18   17
ATOM     17  C14 UNL A   1      33.001  21.528  23.981  1.00  0.00    +0.000 C 
ATOM    108  H16 UNL A   1      32.147  21.265  23.393  1.00  0.00    +0.000 H 
ATOM    109  H17 UNL A   1      32.789  21.986  24.925  1.00  0.00    +0.000 H 
BRANCH   17   16
ATOM    106  H14 UNL A   1      33.979  23.402  23.876  1.00  0.00    +0.000 H 
ATOM    107  H15 UNL A   1      34.646  22.085  22.833  1.00  0.00    +0.000 H 
ATOM     16  C13 UNL A   1      33.780  22.594  23.203  1.00  0.00    +0.000 C 
BRANCH   16   15
ATOM    105  H13 UNL A   1      32.363  22.483  21.661  1.00  0.00    +0.000 H 
ATOM     15  C12 UNL A   1      33.112  23.186  21.963  1.00  0.00    +0.000 C 
ATOM    104  H12 UNL A   1      33.868  23.342  21.221  1.00  0.00    +0.000 H 
BRANCH   15   14
ATOM     14  N2  UNL A   1      32.430  24.440  22.181  1.00  0.00    +0.000 N 
ATOM    103  H11 UNL A   1      32.743  25.184  21.618  1.00  0.00    +0.000 H 
BRANCH   14   12
ATOM     12  C11 UNL A   1      31.411  24.760  23.052  1.00  0.00    +0.000 C 
ATOM     13  O1  UNL A   1      30.474  23.965  23.113  1.00  0.00    +0.000 O 
BRANCH   12   11
ATOM      3  C2  UNL A   1      32.013  27.276  25.722  1.00  0.00    +0.000 C 
ATOM      4  C3  UNL A   1      32.146  25.994  25.197  1.00  0.00    +0.000 C 
ATOM    131  H39 UNL A   1      29.324  27.090  22.279  1.00  0.00    +0.000 H 
ATOM    134  H42 UNL A   1      31.481  30.008  25.501  1.00  0.00    +0.000 H 
ATOM    133  H41 UNL A   1      30.104  30.948  23.794  1.00  0.00    +0.000 H 
ATOM    132  H40 UNL A   1      28.902  29.417  22.252  1.00  0.00    +0.000 H 
ATOM     11  C10 UNL A   1      31.475  25.942  23.920  1.00  0.00    +0.000 C 
ATOM     87  C63 UNL A   1      30.827  27.167  23.801  1.00  0.00    +0.000 C 
ATOM     88  C64 UNL A   1      29.841  27.713  22.920  1.00  0.00    +0.000 C 
ATOM     89  C65 UNL A   1      29.584  29.034  22.923  1.00  0.00    +0.000 C 
ATOM     90  C66 UNL A   1      30.247  29.927  23.852  1.00  0.00    +0.000 C 
ATOM     91  C67 UNL A   1      31.051  29.400  24.788  1.00  0.00    +0.000 C 
ATOM     92  N8  UNL A   1      31.306  28.021  24.797  1.00  0.00    +0.000 N 
BRANCH    3    2
ATOM     97  H5  UNL A   1      32.439  27.059  27.766  1.00  0.00    +0.000 H 
ATOM      2  C1  UNL A   1      32.463  27.836  27.032  1.00  0.00    +0.000 C 
ATOM     96  H4  UNL A   1      31.811  28.636  27.316  1.00  0.00    +0.000 H 
BRANCH    2    1
ATOM      1  N1  UNL A   1      33.823  28.343  26.930  1.00  0.00    +0.000 N 
ATOM     93  H1  UNL A   1      34.326  27.825  26.210  1.00  0.00    +0.000 H 
ATOM     94  H2  UNL A   1      34.297  28.229  27.826  1.00  0.00    +0.000 H 
ATOM     95  H3  UNL A   1      33.799  29.332  26.683  1.00  0.00    +0.000 H 
ENDBRANCH    2    1
ENDBRANCH    3    2
BRANCH    4    5
ATOM     98  H6  UNL A   1      34.776  25.498  25.259  1.00  0.00    +0.000 H 
ATOM     99  H7  UNL A   1      35.927  23.725  26.452  1.00  0.00    +0.000 H 
ATOM    100  H8  UNL A   1      34.669  22.140  27.790  1.00  0.00    +0.000 H 
ATOM      5  C4  UNL A   1      32.847  24.932  25.903  1.00  0.00    +0.000 C 
ATOM    102  H10 UNL A   1      31.096  24.072  26.718  1.00  0.00    +0.000 H 
ATOM      6  C5  UNL A   1      34.238  24.824  25.825  1.00  0.00    +0.000 C 
ATOM      7  C6  UNL A   1      34.900  23.803  26.512  1.00  0.00    +0.000 C 
ATOM      9  C8  UNL A   1      32.789  22.989  27.357  1.00  0.00    +0.000 C 
ATOM     10  C9  UNL A   1      32.124  24.004  26.666  1.00  0.00    +0.000 C 
ATOM    101  H9  UNL A   1      32.252  22.314  27.923  1.00  0.00    +0.000 H 
ATOM      8  C7  UNL A   1      34.176  22.889  27.280  1.00  0.00    +0.000 C 
ENDBRANCH    4    5
ENDBRANCH   12   11
ENDBRANCH   14   12
ENDBRANCH   15   14
ENDBRANCH   16   15
ENDBRANCH   17   16
ENDBRANCH   18   17
ENDBRANCH   19   18
ENDBRANCH   20   19
ENDBRANCH   21   20
ENDBRANCH   22   21
ENDBRANCH   24   22
ENDBRANCH   28   27
BRANCH   32   33
ATOM     33  C27 UNL A   1      38.749  30.586  30.495  1.00  0.00    +0.000 C 
ATOM     34  C28 UNL A   1      38.526  30.476  31.876  1.00  0.00    +0.000 C 
ATOM     35  F1  UNL A   1      39.458  29.927  32.668  1.00  0.00    +0.000 F 
ATOM     36  C29 UNL A   1      37.324  30.892  32.442  1.00  0.00    +0.000 C 
ATOM     37  F2  UNL A   1      37.113  30.729  33.755  1.00  0.00    +0.000 F 
ATOM     38  C30 UNL A   1      36.339  31.456  31.648  1.00  0.00    +0.000 C 
ATOM     39  F3  UNL A   1      35.183  31.858  32.194  1.00  0.00    +0.000 F 
ATOM     40  C31 UNL A   1      36.546  31.597  30.284  1.00  0.00    +0.000 C 
ATOM     41  F4  UNL A   1      35.599  32.154  29.516  1.00  0.00    +0.000 F 
ATOM     42  C32 UNL A   1      37.736  31.156  29.710  1.00  0.00    +0.000 C 
ATOM     43  F5  UNL A   1      37.902  31.290  28.385  1.00  0.00    +0.000 F 
ENDBRANCH   32   33
BRANCH   49   50
ATOM     50  C38 UNL A   1      45.387  33.156  29.386  1.00  0.00    +0.000 C 
ATOM     51  C39 UNL A   1      45.373  34.288  28.560  1.00  0.00    +0.000 C 
ATOM     52  F6  UNL A   1      44.704  34.266  27.397  1.00  0.00    +0.000 F 
ATOM     53  C40 UNL A   1      46.069  35.441  28.915  1.00  0.00    +0.000 C 
ATOM     54  F7  UNL A   1      46.069  36.501  28.096  1.00  0.00    +0.000 F 
ATOM     55  C41 UNL A   1      46.769  35.490  30.112  1.00  0.00    +0.000 C 
ATOM     56  F8  UNL A   1      47.429  36.605  30.458  1.00  0.00    +0.000 F 
ATOM     57  C42 UNL A   1      46.789  34.385  30.948  1.00  0.00    +0.000 C 
ATOM     58  F9  UNL A   1      47.455  34.435  32.110  1.00  0.00    +0.000 F 
ATOM     59  C43 UNL A   1      46.114  33.223  30.585  1.00  0.00    +0.000 C 
ATOM     60  F10 UNL A   1      46.154  32.167  31.411  1.00  0.00    +0.000 F 
ENDBRANCH   49   50
BRANCH   64   65
ATOM     65  C47 UNL A   1      47.026  27.291  25.999  1.00  0.00    +0.000 C 
ATOM     66  C48 UNL A   1      48.015  26.580  26.694  1.00  0.00    +0.000 C 
ATOM     67  F11 UNL A   1      47.870  26.344  28.006  1.00  0.00    +0.000 F 
ATOM     68  C49 UNL A   1      49.172  26.143  26.053  1.00  0.00    +0.000 C 
ATOM     69  F12 UNL A   1      50.118  25.500  26.750  1.00  0.00    +0.000 F 
ATOM     70  C50 UNL A   1      49.352  26.386  24.700  1.00  0.00    +0.000 C 
ATOM     71  F13 UNL A   1      50.464  25.961  24.083  1.00  0.00    +0.000 F 
ATOM     72  C51 UNL A   1      48.382  27.075  23.988  1.00  0.00    +0.000 C 
ATOM     73  F14 UNL A   1      48.546  27.301  22.677  1.00  0.00    +0.000 F 
ATOM     74  C52 UNL A   1      47.234  27.534  24.634  1.00  0.00    +0.000 C 
ATOM     75  F15 UNL A   1      46.316  28.206  23.922  1.00  0.00    +0.000 F 
ENDBRANCH   64   65
TORSDOF 18
ENDMDL
MODEL 2
REMARK VINA RESULT:     -11.2      3.971      9.405
ROOT
ATOM     28  C23 UNL A   1      38.132  30.174  29.753  1.00  0.00    +0.000 C 
ATOM     29  C24 UNL A   1      39.168  29.234  29.209  1.00  0.00    +0.000 C 
ATOM     30  N4  UNL A   1      40.225  28.731  29.796  1.00  0.00    +0.000 N 
ATOM     31  C25 UNL A   1      40.804  27.878  28.866  1.00  0.00    +0.000 C 
ATOM     32  C26 UNL A   1      41.945  27.156  28.977  1.00  0.00    +0.000 C 
ATOM     44  C33 UNL A   1      42.799  27.163  30.135  1.00  0.00    +0.000 C 
ATOM     45  C34 UNL A   1      44.000  26.501  30.326  1.00  0.00    +0.000 C 
ATOM     46  C35 UNL A   1      44.455  26.785  31.618  1.00  0.00    +0.000 C 
ATOM     47  C36 UNL A   1      43.559  27.656  32.217  1.00  0.00    +0.000 C 
ATOM     48  N5  UNL A   1      42.544  27.873  31.298  1.00  0.00    +0.000 N 
ATOM     49  C37 UNL A   1      43.623  28.245  33.529  1.00  0.00    +0.000 C 
ATOM     61  C44 UNL A   1      42.697  29.086  34.050  1.00  0.00    +0.000 C 
ATOM     62  N6  UNL A   1      41.536  29.574  33.466  1.00  0.00    +0.000 N 
ATOM     63  C45 UNL A   1      40.980  30.351  34.362  1.00  0.00    +0.000 C 
ATOM     64  C46 UNL A   1      39.719  31.166  34.261  1.00  0.00    +0.000 C 
ATOM     76  C53 UNL A   1      39.024  31.168  33.107  1.00  0.00    +0.000 C 
ATOM     77  C54 UNL A   1      37.781  31.895  32.869  1.00  0.00    +0.000 C 
ATOM     78  C55 UNL A   1      37.329  31.599  31.640  1.00  0.00    +0.000 C 
ATOM     79  C56 UNL A   1      38.275  30.693  30.987  1.00  0.00    +0.000 C 
ATOM     80  N7  UNL A   1      39.266  30.517  31.923  1.00  0.00    +0.000 N 
ATOM     81  C57 UNL A   1      41.710  30.414  35.637  1.00  0.00    +0.000 C 
ATOM     82  C58 UNL A   1      42.766  29.653  35.381  1.00  0.00    +0.000 C 
ATOM     83  C59 UNL A   1      39.962  27.901  27.689  1.00  0.00    +0.000 C 
ATOM     84  C60 UNL A   1      38.974  28.773  27.825  1.00  0.00    +0.000 C 
ATOM    119  H27 UNL A   1      44.478  25.902  29.634  1.00  0.00    +0.000 H 
ATOM    120  H28 UNL A   1      45.312  26.409  32.052  1.00  0.00    +0.000 H 
ATOM    121  H29 UNL A   1      41.759  28.447  31.449  1.00  0.00    +0.000 H 
ATOM    122  H30 UNL A   1      37.321  32.533  33.538  1.00  0.00    +0.000 H 
ATOM    123  H31 UNL A   1      36.454  31.954  31.221  1.00  0.00    +0.000 H 
ATOM    124  H32 UNL A   1      40.071  29.975  31.758  1.00  0.00    +0.000 H 
ATOM    125  H33 UNL A   1      41.467  30.918  36.503  1.00  0.00    +0.000 H 
ATOM    126  H34 UNL A   1      43.538  29.486  36.045  1.00  0.00    +0.000 H 
ATOM    127  H35 UNL A   1      40.111  27.314  26.853  1.00  0.00    +0.000 H 
ATOM    128  H36 UNL A   1      38.256  29.056  27.140  1.00  0.00    +0.000 H 
ENDROOT
BRANCH   28   27
ATOM    129  H37 UNL A   1      36.238  28.451  28.989  1.00  0.00    +0.000 H 
ATOM    130  H38 UNL A   1      34.274  28.849  27.625  1.00  0.00    +0.000 H 
ATOM     27  C22 UNL A   1      36.905  30.458  28.963  1.00  0.00    +0.000 C 
ATOM    117  H25 UNL A   1      35.200  32.950  27.485  1.00  0.00    +0.000 H 
ATOM     86  C62 UNL A   1      34.877  29.639  27.907  1.00  0.00    +0.000 C 
ATOM     85  C61 UNL A   1      36.028  29.406  28.656  1.00  0.00    +0.000 C 
ATOM     24  C19 UNL A   1      34.540  30.943  27.537  1.00  0.00    +0.000 C 
ATOM     25  C20 UNL A   1      35.424  31.995  27.803  1.00  0.00    +0.000 C 
ATOM     26  C21 UNL A   1      36.611  31.750  28.500  1.00  0.00    +0.000 C 
ATOM    118  H26 UNL A   1      37.272  32.522  28.676  1.00  0.00    +0.000 H 
BRANCH   24   22
ATOM     22  C18 UNL A   1      33.260  31.246  26.854  1.00  0.00    +0.000 C 
ATOM     23  O2  UNL A   1      32.564  32.169  27.260  1.00  0.00    +0.000 O 
BRANCH   22   21
ATOM    116  H24 UNL A   1      33.559  30.107  25.233  1.00  0.00    +0.000 H 
ATOM     21  N3  UNL A   1      32.840  30.474  25.797  1.00  0.00    +0.000 N 
BRANCH   21   20
ATOM    114  H22 UNL A   1      30.802  30.710  25.956  1.00  0.00    +0.000 H 
ATOM    115  H23 UNL A   1      31.422  30.313  24.338  1.00  0.00    +0.000 H 
ATOM     20  C17 UNL A   1      31.492  30.121  25.388  1.00  0.00    +0.000 C 
BRANCH   20   19
ATOM    113  H21 UNL A   1      30.409  28.640  26.365  1.00  0.00    +0.000 H 
ATOM     19  C16 UNL A   1      31.156  28.650  25.599  1.00  0.00    +0.000 C 
ATOM    112  H20 UNL A   1      32.063  28.142  25.852  1.00  0.00    +0.000 H 
BRANCH   19   18
ATOM     18  C15 UNL A   1      30.527  27.915  24.415  1.00  0.00    +0.000 C 
ATOM    110  H18 UNL A   1      29.655  28.464  24.124  1.00  0.00    +0.000 H 
ATOM    111  H19 UNL A   1      31.301  27.867  23.679  1.00  0.00    +0.000 H 
BRANCH   18   17
ATOM     17  C14 UNL A   1      30.103  26.461  24.635  1.00  0.00    +0.000 C 
ATOM    108  H16 UNL A   1      29.044  26.457  24.788  1.00  0.00    +0.000 H 
ATOM    109  H17 UNL A   1      30.447  25.945  23.764  1.00  0.00    +0.000 H 
BRANCH   17   16
ATOM    106  H14 UNL A   1      31.755  25.506  25.550  1.00  0.00    +0.000 H 
ATOM    107  H15 UNL A   1      30.592  26.337  26.655  1.00  0.00    +0.000 H 
ATOM     16  C13 UNL A   1      30.735  25.701  25.806  1.00  0.00    +0.000 C 
BRANCH   16   15
ATOM    105  H13 UNL A   1      29.134  24.348  25.742  1.00  0.00    +0.000 H 
ATOM     15  C12 UNL A   1      30.100  24.369  26.203  1.00  0.00    +0.000 C 
ATOM    104  H12 UNL A   1      30.060  24.325  27.271  1.00  0.00    +0.000 H 
BRANCH   15   14
ATOM     14  N2  UNL A   1      30.801  23.198  25.730  1.00  0.00    +0.000 N 
ATOM    103  H11 UNL A   1      30.818  22.443  26.361  1.00  0.00    +0.000 H 
BRANCH   14   12
ATOM     12  C11 UNL A   1      31.451  22.970  24.536  1.00  0.00    +0.000 C 
ATOM     13  O1  UNL A   1      30.806  23.193  23.512  1.00  0.00    +0.000 O 
BRANCH   12   11
ATOM      3  C2  UNL A   1      35.155  22.726  24.333  1.00  0.00    +0.000 C 
ATOM      4  C3  UNL A   1      33.975  23.464  24.315  1.00  0.00    +0.000 C 
ATOM    131  H39 UNL A   1      31.905  19.811  24.098  1.00  0.00    +0.000 H 
ATOM    134  H42 UNL A   1      36.647  20.439  24.918  1.00  0.00    +0.000 H 
ATOM    133  H41 UNL A   1      35.697  18.259  25.099  1.00  0.00    +0.000 H 
ATOM    132  H40 UNL A   1      33.298  17.949  24.533  1.00  0.00    +0.000 H 
ATOM     11  C10 UNL A   1      32.860  22.563  24.485  1.00  0.00    +0.000 C 
ATOM     87  C63 UNL A   1      33.415  21.289  24.443  1.00  0.00    +0.000 C 
ATOM     88  C64 UNL A   1      32.897  19.959  24.343  1.00  0.00    +0.000 C 
ATOM     89  C65 UNL A   1      33.697  18.900  24.566  1.00  0.00    +0.000 C 
ATOM     90  C66 UNL A   1      35.108  19.069  24.850  1.00  0.00    +0.000 C 
ATOM     91  C67 UNL A   1      35.633  20.302  24.785  1.00  0.00    +0.000 C 
ATOM     92  N8  UNL A   1      34.803  21.405  24.536  1.00  0.00    +0.000 N 
BRANCH    3    2
ATOM     97  H5  UNL A   1      36.588  23.985  23.455  1.00  0.00    +0.000 H 
ATOM      2  C1  UNL A   1      36.571  23.161  24.137  1.00  0.00    +0.000 C 
ATOM     96  H4  UNL A   1      37.140  22.344  23.745  1.00  0.00    +0.000 H 
BRANCH    2    1
ATOM      1  N1  UNL A   1      37.154  23.586  25.400  1.00  0.00    +0.000 N 
ATOM     93  H1  UNL A   1      37.502  24.541  25.310  1.00  0.00    +0.000 H 
ATOM     94  H2  UNL A   1      37.925  22.965  25.644  1.00  0.00    +0.000 H 
ATOM     95  H3  UNL A   1      36.444  23.551  26.131  1.00  0.00    +0.000 H 
ENDBRANCH    2    1
ENDBRANCH    3    2
BRANCH    4    5
ATOM     98  H6  UNL A   1      34.365  25.380  26.143  1.00  0.00    +0.000 H 
ATOM     99  H7  UNL A   1      34.348  27.784  25.805  1.00  0.00    +0.000 H 
ATOM    100  H8  UNL A   1      33.941  28.701  23.596  1.00  0.00    +0.000 H 
ATOM      5  C4  UNL A   1      33.961  24.907  24.125  1.00  0.00    +0.000 C 
ATOM    102  H10 UNL A   1      33.533  24.813  22.058  1.00  0.00    +0.000 H 
ATOM      6  C5  UNL A   1      34.190  25.767  25.203  1.00  0.00    +0.000 C 
ATOM      7  C6  UNL A   1      34.180  27.151  25.008  1.00  0.00    +0.000 C 
ATOM      9  C8  UNL A   1      33.710  26.826  22.661  1.00  0.00    +0.000 C 
ATOM     10  C9  UNL A   1      33.713  25.444  22.854  1.00  0.00    +0.000 C 
ATOM    101  H9  UNL A   1      33.534  27.215  21.722  1.00  0.00    +0.000 H 
ATOM      8  C7  UNL A   1      33.943  27.679  23.738  1.00  0.00    +0.000 C 
ENDBRANCH    4    5
ENDBRANCH   12   11
ENDBRANCH   14   12
ENDBRANCH   15   14
ENDBRANCH   16   15
ENDBRANCH   17   16
ENDBRANCH   18   17
ENDBRANCH   19   18
ENDBRANCH   20   19
ENDBRANCH   21   20
ENDBRANCH   22   21
ENDBRANCH   24   22
ENDBRANCH   28   27
BRANCH   32   33
ATOM     33  C27 UNL A   1      42.331  26.291  27.813  1.00  0.00    +0.000 C 
ATOM     34  C28 UNL A   1      41.786  25.011  27.635  1.00  0.00    +0.000 C 
ATOM     35  F1  UNL A   1      40.926  24.513  28.535  1.00  0.00    +0.000 F 
ATOM     36  C29 UNL A   1      42.159  24.218  26.553  1.00  0.00    +0.000 C 
ATOM     37  F2  UNL A   1      41.666  22.978  26.432  1.00  0.00    +0.000 F 
ATOM     38  C30 UNL A   1      43.053  24.702  25.611  1.00  0.00    +0.000 C 
ATOM     39  F3  UNL A   1      43.408  23.939  24.568  1.00  0.00    +0.000 F 
ATOM     40  C31 UNL A   1      43.585  25.974  25.753  1.00  0.00    +0.000 C 
ATOM     41  F4  UNL A   1      44.441  26.449  24.836  1.00  0.00    +0.000 F 
ATOM     42  C32 UNL A   1      43.237  26.759  26.849  1.00  0.00    +0.000 C 
ATOM     43  F5  UNL A   1      43.782  27.979  26.969  1.00  0.00    +0.000 F 
ENDBRANCH   32   33
BRANCH   49   50
ATOM     50  C38 UNL A   1      44.819  27.924  34.374  1.00  0.00    +0.000 C 
ATOM     51  C39 UNL A   1      44.851  26.796  35.205  1.00  0.00    +0.000 C 
ATOM     52  F6  UNL A   1      43.771  26.009  35.317  1.00  0.00    +0.000 F 
ATOM     53  C40 UNL A   1      45.989  26.488  35.947  1.00  0.00    +0.000 C 
ATOM     54  F7  UNL A   1      45.989  25.424  36.761  1.00  0.00    +0.000 F 
ATOM     55  C41 UNL A   1      47.120  27.285  35.850  1.00  0.00    +0.000 C 
ATOM     56  F8  UNL A   1      48.219  26.980  36.555  1.00  0.00    +0.000 F 
ATOM     57  C42 UNL A   1      47.113  28.401  35.026  1.00  0.00    +0.000 C 
ATOM     58  F9  UNL A   1      48.209  29.165  34.923  1.00  0.00    +0.000 F 
ATOM     59  C43 UNL A   1      45.970  28.725  34.302  1.00  0.00    +0.000 C 
ATOM     60  F10 UNL A   1      45.988  29.812  33.517  1.00  0.00    +0.000 F 
ENDBRANCH   49   50
BRANCH   64   65
ATOM     65  C47 UNL A   1      39.251  31.986  35.407  1.00  0.00    +0.000 C 
ATOM     66  C48 UNL A   1      38.423  31.433  36.393  1.00  0.00    +0.000 C 
ATOM     67  F11 UNL A   1      38.023  30.157  36.291  1.00  0.00    +0.000 F 
ATOM     68  C49 UNL A   1      37.971  32.197  37.467  1.00  0.00    +0.000 C 
ATOM     69  F12 UNL A   1      37.149  31.654  38.374  1.00  0.00    +0.000 F 
ATOM     70  C50 UNL A   1      38.360  33.523  37.589  1.00  0.00    +0.000 C 
ATOM     71  F13 UNL A   1      37.930  34.257  38.624  1.00  0.00    +0.000 F 
ATOM     72  C51 UNL A   1      39.191  34.089  36.633  1.00  0.00    +0.000 C 
ATOM     73  F14 UNL A   1      39.579  35.365  36.754  1.00  0.00    +0.000 F 
ATOM     74  C52 UNL A   1      39.624  33.331  35.545  1.00  0.00    +0.000 C 
ATOM     75  F15 UNL A   1      40.418  33.907  34.631  1.00  0.00    +0.000 F 
ENDBRANCH   64   65
TORSDOF 18
ENDMDL
MODEL 3
REMARK VINA RESULT:     -11.1      1.178      2.058
ROOT
ATOM     28  C23 UNL A   1      41.514  26.034  27.661  1.00  0.00    +0.000 C 
ATOM     29  C24 UNL A   1      40.823  27.115  28.441  1.00  0.00    +0.000 C 
ATOM     30  N4  UNL A   1      41.241  28.318  28.745  1.00  0.00    +0.000 N 
ATOM     31  C25 UNL A   1      40.191  28.922  29.424  1.00  0.00    +0.000 C 
ATOM     32  C26 UNL A   1      40.146  30.154  29.986  1.00  0.00    +0.000 C 
ATOM     44  C33 UNL A   1      41.241  31.087  29.985  1.00  0.00    +0.000 C 
ATOM     45  C34 UNL A   1      41.309  32.340  30.568  1.00  0.00    +0.000 C 
ATOM     46  C35 UNL A   1      42.564  32.890  30.280  1.00  0.00    +0.000 C 
ATOM     47  C36 UNL A   1      43.292  31.961  29.553  1.00  0.00    +0.000 C 
ATOM     48  N5  UNL A   1      42.466  30.864  29.373  1.00  0.00    +0.000 N 
ATOM     49  C37 UNL A   1      44.639  32.069  29.059  1.00  0.00    +0.000 C 
ATOM     61  C44 UNL A   1      45.284  31.115  28.343  1.00  0.00    +0.000 C 
ATOM     62  N6  UNL A   1      44.831  29.862  27.954  1.00  0.00    +0.000 N 
ATOM     63  C45 UNL A   1      45.815  29.314  27.286  1.00  0.00    +0.000 C 
ATOM     64  C46 UNL A   1      45.891  27.949  26.657  1.00  0.00    +0.000 C 
ATOM     76  C53 UNL A   1      44.848  27.105  26.781  1.00  0.00    +0.000 C 
ATOM     77  C54 UNL A   1      44.774  25.762  26.213  1.00  0.00    +0.000 C 
ATOM     78  C55 UNL A   1      43.560  25.247  26.464  1.00  0.00    +0.000 C 
ATOM     79  C56 UNL A   1      42.784  26.209  27.248  1.00  0.00    +0.000 C 
ATOM     80  N7  UNL A   1      43.641  27.271  27.414  1.00  0.00    +0.000 N 
ATOM     81  C57 UNL A   1      46.997  30.177  27.143  1.00  0.00    +0.000 C 
ATOM     82  C58 UNL A   1      46.634  31.249  27.835  1.00  0.00    +0.000 C 
ATOM     83  C59 UNL A   1      39.103  27.969  29.455  1.00  0.00    +0.000 C 
ATOM     84  C60 UNL A   1      39.465  26.812  28.919  1.00  0.00    +0.000 C 
ATOM    119  H27 UNL A   1      40.563  32.792  31.121  1.00  0.00    +0.000 H 
ATOM    120  H28 UNL A   1      42.890  33.827  30.561  1.00  0.00    +0.000 H 
ATOM    121  H29 UNL A   1      42.712  30.046  28.884  1.00  0.00    +0.000 H 
ATOM    122  H30 UNL A   1      45.532  25.285  25.700  1.00  0.00    +0.000 H 
ATOM    123  H31 UNL A   1      43.226  24.321  26.154  1.00  0.00    +0.000 H 
ATOM    124  H32 UNL A   1      43.411  28.072  27.937  1.00  0.00    +0.000 H 
ATOM    125  H33 UNL A   1      47.879  29.997  26.639  1.00  0.00    +0.000 H 
ATOM    126  H34 UNL A   1      47.235  32.072  27.991  1.00  0.00    +0.000 H 
ATOM    127  H35 UNL A   1      38.167  28.164  29.844  1.00  0.00    +0.000 H 
ATOM    128  H36 UNL A   1      38.934  25.930  28.855  1.00  0.00    +0.000 H 
ENDROOT
BRANCH   28   27
ATOM    129  H37 UNL A   1      39.418  25.852  26.015  1.00  0.00    +0.000 H 
ATOM    130  H38 UNL A   1      38.109  23.900  25.423  1.00  0.00    +0.000 H 
ATOM     27  C22 UNL A   1      40.766  24.812  27.270  1.00  0.00    +0.000 C 
ATOM    117  H25 UNL A   1      40.685  21.479  27.704  1.00  0.00    +0.000 H 
ATOM     86  C62 UNL A   1      38.950  23.799  26.014  1.00  0.00    +0.000 C 
ATOM     85  C61 UNL A   1      39.678  24.926  26.389  1.00  0.00    +0.000 C 
ATOM     24  C19 UNL A   1      39.359  22.533  26.440  1.00  0.00    +0.000 C 
ATOM     25  C20 UNL A   1      40.416  22.409  27.348  1.00  0.00    +0.000 C 
ATOM     26  C21 UNL A   1      41.107  23.547  27.774  1.00  0.00    +0.000 C 
ATOM    118  H26 UNL A   1      41.872  23.457  28.461  1.00  0.00    +0.000 H 
BRANCH   24   22
ATOM     22  C18 UNL A   1      38.689  21.302  25.958  1.00  0.00    +0.000 C 
ATOM     23  O2  UNL A   1      39.327  20.260  25.878  1.00  0.00    +0.000 O 
BRANCH   22   21
ATOM    116  H24 UNL A   1      36.911  22.197  25.719  1.00  0.00    +0.000 H 
ATOM     21  N3  UNL A   1      37.370  21.339  25.566  1.00  0.00    +0.000 N 
BRANCH   21   20
ATOM    114  H22 UNL A   1      36.933  20.106  23.979  1.00  0.00    +0.000 H 
ATOM    115  H23 UNL A   1      36.619  19.443  25.598  1.00  0.00    +0.000 H 
ATOM     20  C17 UNL A   1      36.557  20.301  24.962  1.00  0.00    +0.000 C 
BRANCH   20   19
ATOM    113  H21 UNL A   1      34.987  21.160  23.903  1.00  0.00    +0.000 H 
ATOM     19  C16 UNL A   1      35.083  20.667  24.848  1.00  0.00    +0.000 C 
ATOM    112  H20 UNL A   1      34.832  21.273  25.694  1.00  0.00    +0.000 H 
BRANCH   19   18
ATOM     18  C15 UNL A   1      34.089  19.506  24.799  1.00  0.00    +0.000 C 
ATOM    110  H18 UNL A   1      34.506  18.755  24.159  1.00  0.00    +0.000 H 
ATOM    111  H19 UNL A   1      33.958  19.214  25.819  1.00  0.00    +0.000 H 
BRANCH   18   17
ATOM     17  C14 UNL A   1      32.678  19.810  24.291  1.00  0.00    +0.000 C 
ATOM    108  H16 UNL A   1      32.551  19.287  23.366  1.00  0.00    +0.000 H 
ATOM    109  H17 UNL A   1      32.033  19.504  25.088  1.00  0.00    +0.000 H 
BRANCH   17   16
ATOM    106  H14 UNL A   1      31.304  21.418  24.384  1.00  0.00    +0.000 H 
ATOM    107  H15 UNL A   1      33.052  21.840  24.562  1.00  0.00    +0.000 H 
ATOM     16  C13 UNL A   1      32.307  21.276  24.040  1.00  0.00    +0.000 C 
BRANCH   16   15
ATOM    105  H13 UNL A   1      31.371  21.749  22.225  1.00  0.00    +0.000 H 
ATOM     15  C12 UNL A   1      32.373  21.780  22.599  1.00  0.00    +0.000 C 
ATOM    104  H12 UNL A   1      33.046  21.149  22.057  1.00  0.00    +0.000 H 
BRANCH   15   14
ATOM     14  N2  UNL A   1      32.820  23.145  22.454  1.00  0.00    +0.000 N 
ATOM    103  H11 UNL A   1      32.281  23.694  21.841  1.00  0.00    +0.000 H 
BRANCH   14   12
ATOM     12  C11 UNL A   1      33.883  23.802  23.037  1.00  0.00    +0.000 C 
ATOM     13  O1  UNL A   1      34.993  23.296  22.875  1.00  0.00    +0.000 O 
BRANCH   12   11
ATOM      3  C2  UNL A   1      33.375  26.567  25.468  1.00  0.00    +0.000 C 
ATOM      4  C3  UNL A   1      33.458  25.214  25.155  1.00  0.00    +0.000 C 
ATOM    131  H39 UNL A   1      33.392  26.332  21.102  1.00  0.00    +0.000 H 
ATOM    134  H42 UNL A   1      33.824  29.272  24.939  1.00  0.00    +0.000 H 
ATOM    133  H41 UNL A   1      34.070  30.159  22.738  1.00  0.00    +0.000 H 
ATOM    132  H40 UNL A   1      33.701  28.657  20.796  1.00  0.00    +0.000 H 
ATOM     11  C10 UNL A   1      33.714  25.078  23.741  1.00  0.00    +0.000 C 
ATOM     87  C63 UNL A   1      33.620  26.368  23.231  1.00  0.00    +0.000 C 
ATOM     88  C64 UNL A   1      33.555  26.940  21.921  1.00  0.00    +0.000 C 
ATOM     89  C65 UNL A   1      33.706  28.266  21.750  1.00  0.00    +0.000 C 
ATOM     90  C66 UNL A   1      33.875  29.156  22.882  1.00  0.00    +0.000 C 
ATOM     91  C67 UNL A   1      33.774  28.648  24.119  1.00  0.00    +0.000 C 
ATOM     92  N8  UNL A   1      33.600  27.268  24.298  1.00  0.00    +0.000 N 
BRANCH    3    2
ATOM     97  H5  UNL A   1      33.594  28.173  26.804  1.00  0.00    +0.000 H 
ATOM      2  C1  UNL A   1      33.067  27.243  26.765  1.00  0.00    +0.000 C 
ATOM     96  H4  UNL A   1      33.370  26.610  27.573  1.00  0.00    +0.000 H 
BRANCH    2    1
ATOM      1  N1  UNL A   1      31.640  27.507  26.876  1.00  0.00    +0.000 N 
ATOM     93  H1  UNL A   1      31.489  28.293  27.508  1.00  0.00    +0.000 H 
ATOM     94  H2  UNL A   1      31.169  26.681  27.243  1.00  0.00    +0.000 H 
ATOM     95  H3  UNL A   1      31.264  27.733  25.956  1.00  0.00    +0.000 H 
ENDBRANCH    2    1
ENDBRANCH    3    2
BRANCH    4    5
ATOM     98  H6  UNL A   1      31.167  24.230  26.131  1.00  0.00    +0.000 H 
ATOM     99  H7  UNL A   1      30.887  22.482  27.791  1.00  0.00    +0.000 H 
ATOM    100  H8  UNL A   1      32.830  21.407  28.769  1.00  0.00    +0.000 H 
ATOM      5  C4  UNL A   1      33.278  24.171  26.154  1.00  0.00    +0.000 C 
ATOM    102  H10 UNL A   1      35.346  23.850  26.455  1.00  0.00    +0.000 H 
ATOM      6  C5  UNL A   1      31.995  23.777  26.546  1.00  0.00    +0.000 C 
ATOM      7  C6  UNL A   1      31.835  22.770  27.502  1.00  0.00    +0.000 C 
ATOM      9  C8  UNL A   1      34.233  22.546  27.683  1.00  0.00    +0.000 C 
ATOM     10  C9  UNL A   1      34.396  23.555  26.733  1.00  0.00    +0.000 C 
ATOM    101  H9  UNL A   1      35.060  22.091  28.100  1.00  0.00    +0.000 H 
ATOM      8  C7  UNL A   1      32.952  22.153  28.067  1.00  0.00    +0.000 C 
ENDBRANCH    4    5
ENDBRANCH   12   11
ENDBRANCH   14   12
ENDBRANCH   15   14
ENDBRANCH   16   15
ENDBRANCH   17   16
ENDBRANCH   18   17
ENDBRANCH   19   18
ENDBRANCH   20   19
ENDBRANCH   21   20
ENDBRANCH   22   21
ENDBRANCH   24   22
ENDBRANCH   28   27
BRANCH   32   33
ATOM     33  C27 UNL A   1      38.863  30.565  30.647  1.00  0.00    +0.000 C 
ATOM     34  C28 UNL A   1      38.675  30.437  32.031  1.00  0.00    +0.000 C 
ATOM     35  F1  UNL A   1      39.638  29.903  32.796  1.00  0.00    +0.000 F 
ATOM     36  C29 UNL A   1      37.476  30.817  32.629  1.00  0.00    +0.000 C 
ATOM     37  F2  UNL A   1      37.299  30.636  33.945  1.00  0.00    +0.000 F 
ATOM     38  C30 UNL A   1      36.459  31.364  31.863  1.00  0.00    +0.000 C 
ATOM     39  F3  UNL A   1      35.307  31.733  32.440  1.00  0.00    +0.000 F 
ATOM     40  C31 UNL A   1      36.631  31.523  30.496  1.00  0.00    +0.000 C 
ATOM     41  F4  UNL A   1      35.653  32.064  29.756  1.00  0.00    +0.000 F 
ATOM     42  C32 UNL A   1      37.818  31.117  29.891  1.00  0.00    +0.000 C 
ATOM     43  F5  UNL A   1      37.949  31.268  28.564  1.00  0.00    +0.000 F 
ENDBRANCH   32   33
BRANCH   49   50
ATOM     50  C38 UNL A   1      45.398  33.321  29.384  1.00  0.00    +0.000 C 
ATOM     51  C39 UNL A   1      46.205  33.416  30.526  1.00  0.00    +0.000 C 
ATOM     52  F6  UNL A   1      46.259  32.401  31.401  1.00  0.00    +0.000 F 
ATOM     53  C40 UNL A   1      46.940  34.571  30.787  1.00  0.00    +0.000 C 
ATOM     54  F7  UNL A   1      47.680  34.655  31.901  1.00  0.00    +0.000 F 
ATOM     55  C41 UNL A   1      46.901  35.635  29.899  1.00  0.00    +0.000 C 
ATOM     56  F8  UNL A   1      47.618  36.741  30.145  1.00  0.00    +0.000 F 
ATOM     57  C42 UNL A   1      46.116  35.558  28.758  1.00  0.00    +0.000 C 
ATOM     58  F9  UNL A   1      46.086  36.582  27.894  1.00  0.00    +0.000 F 
ATOM     59  C43 UNL A   1      45.362  34.416  28.507  1.00  0.00    +0.000 C 
ATOM     60  F10 UNL A   1      44.608  34.369  27.399  1.00  0.00    +0.000 F 
ENDBRANCH   49   50
BRANCH   64   65
ATOM     65  C47 UNL A   1      47.111  27.515  25.930  1.00  0.00    +0.000 C 
ATOM     66  C48 UNL A   1      47.229  27.712  24.548  1.00  0.00    +0.000 C 
ATOM     67  F11 UNL A   1      46.221  28.273  23.864  1.00  0.00    +0.000 F 
ATOM     68  C49 UNL A   1      48.366  27.299  23.856  1.00  0.00    +0.000 C 
ATOM     69  F12 UNL A   1      48.436  27.465  22.528  1.00  0.00    +0.000 F 
ATOM     70  C50 UNL A   1      49.417  26.705  24.537  1.00  0.00    +0.000 C 
ATOM     71  F13 UNL A   1      50.513  26.313  23.872  1.00  0.00    +0.000 F 
ATOM     72  C51 UNL A   1      49.330  26.512  25.907  1.00  0.00    +0.000 C 
ATOM     73  F14 UNL A   1      50.348  25.950  26.571  1.00  0.00    +0.000 F 
ATOM     74  C52 UNL A   1      48.182  26.903  26.597  1.00  0.00    +0.000 C 
ATOM     75  F15 UNL A   1      48.121  26.695  27.921  1.00  0.00    +0.000 F 
ENDBRANCH   64   65
TORSDOF 18
ENDMDL
MODEL 4
REMARK VINA RESULT:     -10.9      3.995      9.319
ROOT
ATOM     28  C23 UNL A   1      38.071  30.151  29.745  1.00  0.00    +0.000 C 
ATOM     29  C24 UNL A   1      39.116  29.217  29.204  1.00  0.00    +0.000 C 
ATOM     30  N4  UNL A   1      40.179  28.728  29.791  1.00  0.00    +0.000 N 
ATOM     31  C25 UNL A   1      40.763  27.875  28.865  1.00  0.00    +0.000 C 
ATOM     32  C26 UNL A   1      41.911  27.164  28.977  1.00  0.00    +0.000 C 
ATOM     44  C33 UNL A   1      42.769  27.187  30.132  1.00  0.00    +0.000 C 
ATOM     45  C34 UNL A   1      43.976  26.538  30.324  1.00  0.00    +0.000 C 
ATOM     46  C35 UNL A   1      44.433  26.834  31.613  1.00  0.00    +0.000 C 
ATOM     47  C36 UNL A   1      43.530  27.701  32.208  1.00  0.00    +0.000 C 
ATOM     48  N5  UNL A   1      42.511  27.902  31.292  1.00  0.00    +0.000 N 
ATOM     49  C37 UNL A   1      43.593  28.299  33.516  1.00  0.00    +0.000 C 
ATOM     61  C44 UNL A   1      42.660  29.135  34.035  1.00  0.00    +0.000 C 
ATOM     62  N6  UNL A   1      41.493  29.608  33.451  1.00  0.00    +0.000 N 
ATOM     63  C45 UNL A   1      40.933  30.386  34.344  1.00  0.00    +0.000 C 
ATOM     64  C46 UNL A   1      39.663  31.188  34.242  1.00  0.00    +0.000 C 
ATOM     76  C53 UNL A   1      38.965  31.176  33.090  1.00  0.00    +0.000 C 
ATOM     77  C54 UNL A   1      37.714  31.889  32.851  1.00  0.00    +0.000 C 
ATOM     78  C55 UNL A   1      37.262  31.581  31.625  1.00  0.00    +0.000 C 
ATOM     79  C56 UNL A   1      38.214  30.680  30.976  1.00  0.00    +0.000 C 
ATOM     80  N7  UNL A   1      39.209  30.519  31.909  1.00  0.00    +0.000 N 
ATOM     81  C57 UNL A   1      41.666  30.464  35.616  1.00  0.00    +0.000 C 
ATOM     82  C58 UNL A   1      42.728  29.711  35.362  1.00  0.00    +0.000 C 
ATOM     83  C59 UNL A   1      39.917  27.882  27.691  1.00  0.00    +0.000 C 
ATOM     84  C60 UNL A   1      38.921  28.745  27.824  1.00  0.00    +0.000 C 
ATOM    119  H27 UNL A   1      44.458  25.939  29.634  1.00  0.00    +0.000 H 
ATOM    120  H28 UNL A   1      45.295  26.469  32.046  1.00  0.00    +0.000 H 
ATOM    121  H29 UNL A   1      41.721  28.470  31.441  1.00  0.00    +0.000 H 
ATOM    122  H30 UNL A   1      37.251  32.527  33.518  1.00  0.00    +0.000 H 
ATOM    123  H31 UNL A   1      36.382  31.925  31.208  1.00  0.00    +0.000 H 
ATOM    124  H32 UNL A   1      40.019  29.984  31.746  1.00  0.00    +0.000 H 
ATOM    125  H33 UNL A   1      41.421  30.972  36.480  1.00  0.00    +0.000 H 
ATOM    126  H34 UNL A   1      43.503  29.556  36.024  1.00  0.00    +0.000 H 
ATOM    127  H35 UNL A   1      40.069  27.291  26.859  1.00  0.00    +0.000 H 
ATOM    128  H36 UNL A   1      38.199  29.017  27.139  1.00  0.00    +0.000 H 
ENDROOT
BRANCH   28   27
ATOM    129  H37 UNL A   1      36.161  28.417  29.052  1.00  0.00    +0.000 H 
ATOM    130  H38 UNL A   1      34.188  28.786  27.692  1.00  0.00    +0.000 H 
ATOM     27  C22 UNL A   1      36.840  30.418  28.958  1.00  0.00    +0.000 C 
ATOM    117  H25 UNL A   1      35.137  32.874  27.418  1.00  0.00    +0.000 H 
ATOM     86  C62 UNL A   1      34.798  29.579  27.944  1.00  0.00    +0.000 C 
ATOM     85  C61 UNL A   1      35.954  29.362  28.691  1.00  0.00    +0.000 C 
ATOM     24  C19 UNL A   1      34.466  30.874  27.538  1.00  0.00    +0.000 C 
ATOM     25  C20 UNL A   1      35.358  31.928  27.763  1.00  0.00    +0.000 C 
ATOM     26  C21 UNL A   1      36.549  31.697  28.458  1.00  0.00    +0.000 C 
ATOM    118  H26 UNL A   1      37.217  32.470  28.604  1.00  0.00    +0.000 H 
BRANCH   24   22
ATOM     22  C18 UNL A   1      33.182  31.164  26.857  1.00  0.00    +0.000 C 
ATOM     23  O2  UNL A   1      32.404  31.969  27.354  1.00  0.00    +0.000 O 
BRANCH   22   21
ATOM    116  H24 UNL A   1      33.566  30.460  25.020  1.00  0.00    +0.000 H 
ATOM     21  N3  UNL A   1      32.850  30.506  25.695  1.00  0.00    +0.000 N 
BRANCH   21   20
ATOM    114  H22 UNL A   1      31.266  29.270  26.138  1.00  0.00    +0.000 H 
ATOM    115  H23 UNL A   1      30.911  30.652  25.078  1.00  0.00    +0.000 H 
ATOM     20  C17 UNL A   1      31.601  29.871  25.317  1.00  0.00    +0.000 C 
BRANCH   20   19
ATOM    113  H21 UNL A   1      30.982  29.356  23.401  1.00  0.00    +0.000 H 
ATOM     19  C16 UNL A   1      31.715  28.982  24.085  1.00  0.00    +0.000 C 
ATOM    112  H20 UNL A   1      31.559  27.971  24.398  1.00  0.00    +0.000 H 
BRANCH   19   18
ATOM     18  C15 UNL A   1      33.040  29.034  23.324  1.00  0.00    +0.000 C 
ATOM    110  H18 UNL A   1      32.898  29.676  22.478  1.00  0.00    +0.000 H 
ATOM    111  H19 UNL A   1      33.755  29.376  24.041  1.00  0.00    +0.000 H 
BRANCH   18   17
ATOM     17  C14 UNL A   1      33.604  27.709  22.806  1.00  0.00    +0.000 C 
ATOM    108  H16 UNL A   1      34.286  27.940  22.014  1.00  0.00    +0.000 H 
ATOM    109  H17 UNL A   1      34.037  27.245  23.667  1.00  0.00    +0.000 H 
BRANCH   17   16
ATOM    106  H14 UNL A   1      31.780  26.644  22.937  1.00  0.00    +0.000 H 
ATOM    107  H15 UNL A   1      32.390  26.995  21.272  1.00  0.00    +0.000 H 
ATOM     16  C13 UNL A   1      32.614  26.670  22.267  1.00  0.00    +0.000 C 
BRANCH   16   15
ATOM    105  H13 UNL A   1      33.673  25.013  22.995  1.00  0.00    +0.000 H 
ATOM     15  C12 UNL A   1      33.118  25.237  22.108  1.00  0.00    +0.000 C 
ATOM    104  H12 UNL A   1      33.709  25.190  21.217  1.00  0.00    +0.000 H 
BRANCH   15   14
ATOM     14  N2  UNL A   1      32.081  24.236  22.013  1.00  0.00    +0.000 N 
ATOM    103  H11 UNL A   1      31.834  23.982  21.095  1.00  0.00    +0.000 H 
BRANCH   14   12
ATOM     12  C11 UNL A   1      31.383  23.580  23.004  1.00  0.00    +0.000 C 
ATOM     13  O1  UNL A   1      30.160  23.716  22.991  1.00  0.00    +0.000 O 
BRANCH   12   11
ATOM      3  C2  UNL A   1      33.192  22.035  25.860  1.00  0.00    +0.000 C 
ATOM      4  C3  UNL A   1      32.686  23.144  25.189  1.00  0.00    +0.000 C 
ATOM    131  H39 UNL A   1      31.995  20.615  21.901  1.00  0.00    +0.000 H 
ATOM    134  H42 UNL A   1      33.335  19.294  26.375  1.00  0.00    +0.000 H 
ATOM    133  H41 UNL A   1      32.770  17.622  24.770  1.00  0.00    +0.000 H 
ATOM    132  H40 UNL A   1      32.228  18.326  22.451  1.00  0.00    +0.000 H 
ATOM     11  C10 UNL A   1      32.050  22.701  23.971  1.00  0.00    +0.000 C 
ATOM     87  C63 UNL A   1      32.339  21.344  23.885  1.00  0.00    +0.000 C 
ATOM     88  C64 UNL A   1      32.210  20.340  22.873  1.00  0.00    +0.000 C 
ATOM     89  C65 UNL A   1      32.368  19.040  23.182  1.00  0.00    +0.000 C 
ATOM     90  C66 UNL A   1      32.730  18.623  24.522  1.00  0.00    +0.000 C 
ATOM     91  C67 UNL A   1      33.011  19.566  25.434  1.00  0.00    +0.000 C 
ATOM     92  N8  UNL A   1      32.864  20.922  25.109  1.00  0.00    +0.000 N 
BRANCH    3    2
ATOM     97  H5  UNL A   1      34.797  22.644  27.070  1.00  0.00    +0.000 H 
ATOM      2  C1  UNL A   1      33.987  21.948  27.123  1.00  0.00    +0.000 C 
ATOM     96  H4  UNL A   1      34.361  20.952  27.235  1.00  0.00    +0.000 H 
BRANCH    2    1
ATOM      1  N1  UNL A   1      33.158  22.278  28.272  1.00  0.00    +0.000 N 
ATOM     93  H1  UNL A   1      33.678  22.094  29.129  1.00  0.00    +0.000 H 
ATOM     94  H2  UNL A   1      32.313  21.708  28.257  1.00  0.00    +0.000 H 
ATOM     95  H3  UNL A   1      32.903  23.265  28.234  1.00  0.00    +0.000 H 
ENDBRANCH    2    1
ENDBRANCH    3    2
BRANCH    4    5
ATOM     98  H6  UNL A   1      34.875  24.684  25.159  1.00  0.00    +0.000 H 
ATOM     99  H7  UNL A   1      35.112  26.948  26.002  1.00  0.00    +0.000 H 
ATOM    100  H8  UNL A   1      33.219  28.074  27.019  1.00  0.00    +0.000 H 
ATOM      5  C4  UNL A   1      32.841  24.499  25.696  1.00  0.00    +0.000 C 
ATOM    102  H10 UNL A   1      30.850  24.663  26.386  1.00  0.00    +0.000 H 
ATOM      6  C5  UNL A   1      34.069  25.160  25.593  1.00  0.00    +0.000 C 
ATOM      7  C6  UNL A   1      34.205  26.463  26.079  1.00  0.00    +0.000 C 
ATOM      9  C8  UNL A   1      31.892  26.454  26.776  1.00  0.00    +0.000 C 
ATOM     10  C9  UNL A   1      31.755  25.150  26.297  1.00  0.00    +0.000 C 
ATOM    101  H9  UNL A   1      31.087  26.932  27.210  1.00  0.00    +0.000 H 
ATOM      8  C7  UNL A   1      33.117  27.111  26.666  1.00  0.00    +0.000 C 
ENDBRANCH    4    5
ENDBRANCH   12   11
ENDBRANCH   14   12
ENDBRANCH   15   14
ENDBRANCH   16   15
ENDBRANCH   17   16
ENDBRANCH   18   17
ENDBRANCH   19   18
ENDBRANCH   20   19
ENDBRANCH   21   20
ENDBRANCH   22   21
ENDBRANCH   24   22
ENDBRANCH   28   27
BRANCH   32   33
ATOM     33  C27 UNL A   1      42.301  26.295  27.818  1.00  0.00    +0.000 C 
ATOM     34  C28 UNL A   1      43.221  26.729  26.852  1.00  0.00    +0.000 C 
ATOM     35  F1  UNL A   1      43.749  27.959  26.927  1.00  0.00    +0.000 F 
ATOM     36  C29 UNL A   1      43.570  25.913  25.778  1.00  0.00    +0.000 C 
ATOM     37  F2  UNL A   1      44.410  26.369  24.839  1.00  0.00    +0.000 F 
ATOM     38  C30 UNL A   1      43.035  24.640  25.669  1.00  0.00    +0.000 C 
ATOM     39  F3  UNL A   1      43.373  23.855  24.637  1.00  0.00    +0.000 F 
ATOM     40  C31 UNL A   1      42.142  24.181  26.625  1.00  0.00    +0.000 C 
ATOM     41  F4  UNL A   1      41.632  22.944  26.528  1.00  0.00    +0.000 F 
ATOM     42  C32 UNL A   1      41.769  25.004  27.685  1.00  0.00    +0.000 C 
ATOM     43  F5  UNL A   1      40.890  24.539  28.586  1.00  0.00    +0.000 F 
ENDBRANCH   32   33
BRANCH   49   50
ATOM     50  C38 UNL A   1      44.795  27.995  34.360  1.00  0.00    +0.000 C 
ATOM     51  C39 UNL A   1      45.930  28.817  34.346  1.00  0.00    +0.000 C 
ATOM     52  F6  UNL A   1      45.993  29.867  33.513  1.00  0.00    +0.000 F 
ATOM     53  C40 UNL A   1      47.018  28.546  35.172  1.00  0.00    +0.000 C 
ATOM     54  F7  UNL A   1      48.107  29.325  35.120  1.00  0.00    +0.000 F 
ATOM     55  C41 UNL A   1      46.979  27.466  36.041  1.00  0.00    +0.000 C 
ATOM     56  F8  UNL A   1      48.023  27.213  36.844  1.00  0.00    +0.000 F 
ATOM     57  C42 UNL A   1      45.862  26.645  36.077  1.00  0.00    +0.000 C 
ATOM     58  F9  UNL A   1      45.819  25.608  36.925  1.00  0.00    +0.000 F 
ATOM     59  C43 UNL A   1      44.783  26.900  35.237  1.00  0.00    +0.000 C 
ATOM     60  F10 UNL A   1      43.718  26.087  35.288  1.00  0.00    +0.000 F 
ENDBRANCH   49   50
BRANCH   64   65
ATOM     65  C47 UNL A   1      39.192  32.011  35.384  1.00  0.00    +0.000 C 
ATOM     66  C48 UNL A   1      39.562  33.359  35.496  1.00  0.00    +0.000 C 
ATOM     67  F11 UNL A   1      40.373  33.907  34.580  1.00  0.00    +0.000 F 
ATOM     68  C49 UNL A   1      39.133  34.137  36.569  1.00  0.00    +0.000 C 
ATOM     69  F12 UNL A   1      39.533  35.411  36.672  1.00  0.00    +0.000 F 
ATOM     70  C50 UNL A   1      38.304  33.589  37.537  1.00  0.00    +0.000 C 
ATOM     71  F13 UNL A   1      37.887  34.340  38.567  1.00  0.00    +0.000 F 
ATOM     72  C51 UNL A   1      37.913  32.262  37.441  1.00  0.00    +0.000 C 
ATOM     73  F14 UNL A   1      37.102  31.733  38.367  1.00  0.00    +0.000 F 
ATOM     74  C52 UNL A   1      38.362  31.476  36.380  1.00  0.00    +0.000 C 
ATOM     75  F15 UNL A   1      37.976  30.193  36.317  1.00  0.00    +0.000 F 
ENDBRANCH   64   65
TORSDOF 18
ENDMDL
MODEL 5
REMARK VINA RESULT:     -10.9      2.788      7.918
ROOT
ATOM     28  C23 UNL A   1      40.509  30.098  29.905  1.00  0.00    +0.000 C 
ATOM     29  C24 UNL A   1      41.675  31.021  29.697  1.00  0.00    +0.000 C 
ATOM     30  N4  UNL A   1      42.794  30.814  29.052  1.00  0.00    +0.000 N 
ATOM     31  C25 UNL A   1      43.495  32.011  29.116  1.00  0.00    +0.000 C 
ATOM     32  C26 UNL A   1      44.731  32.294  28.639  1.00  0.00    +0.000 C 
ATOM     44  C33 UNL A   1      45.575  31.346  27.961  1.00  0.00    +0.000 C 
ATOM     45  C34 UNL A   1      46.861  31.523  27.482  1.00  0.00    +0.000 C 
ATOM     46  C35 UNL A   1      47.269  30.332  26.871  1.00  0.00    +0.000 C 
ATOM     47  C36 UNL A   1      46.252  29.400  27.008  1.00  0.00    +0.000 C 
ATOM     48  N5  UNL A   1      45.216  30.038  27.671  1.00  0.00    +0.000 N 
ATOM     49  C37 UNL A   1      46.227  28.031  26.564  1.00  0.00    +0.000 C 
ATOM     61  C44 UNL A   1      45.185  27.179  26.727  1.00  0.00    +0.000 C 
ATOM     62  N6  UNL A   1      43.964  27.404  27.348  1.00  0.00    +0.000 N 
ATOM     63  C45 UNL A   1      43.298  26.280  27.253  1.00  0.00    +0.000 C 
ATOM     64  C46 UNL A   1      41.929  25.941  27.777  1.00  0.00    +0.000 C 
ATOM     76  C53 UNL A   1      41.242  26.864  28.478  1.00  0.00    +0.000 C 
ATOM     77  C54 UNL A   1      39.903  26.683  29.032  1.00  0.00    +0.000 C 
ATOM     78  C55 UNL A   1      39.501  27.835  29.591  1.00  0.00    +0.000 C 
ATOM     79  C56 UNL A   1      40.572  28.825  29.472  1.00  0.00    +0.000 C 
ATOM     80  N7  UNL A   1      41.578  28.150  28.823  1.00  0.00    +0.000 N 
ATOM     81  C57 UNL A   1      44.010  25.221  26.523  1.00  0.00    +0.000 C 
ATOM     82  C58 UNL A   1      45.168  25.810  26.255  1.00  0.00    +0.000 C 
ATOM     83  C59 UNL A   1      42.659  32.952  29.831  1.00  0.00    +0.000 C 
ATOM     84  C60 UNL A   1      41.552  32.372  30.269  1.00  0.00    +0.000 C 
ATOM    119  H27 UNL A   1      47.423  32.385  27.562  1.00  0.00    +0.000 H 
ATOM    120  H28 UNL A   1      48.172  30.174  26.400  1.00  0.00    +0.000 H 
ATOM    121  H29 UNL A   1      44.354  29.624  27.903  1.00  0.00    +0.000 H 
ATOM    122  H30 UNL A   1      39.354  25.810  28.998  1.00  0.00    +0.000 H 
ATOM    123  H31 UNL A   1      38.583  27.997  30.035  1.00  0.00    +0.000 H 
ATOM    124  H32 UNL A   1      42.456  28.550  28.627  1.00  0.00    +0.000 H 
ATOM    125  H33 UNL A   1      43.694  24.269  26.283  1.00  0.00    +0.000 H 
ATOM    126  H34 UNL A   1      45.956  25.352  25.772  1.00  0.00    +0.000 H 
ATOM    127  H35 UNL A   1      42.895  33.946  29.980  1.00  0.00    +0.000 H 
ATOM    128  H36 UNL A   1      40.800  32.763  30.857  1.00  0.00    +0.000 H 
ENDROOT
BRANCH   28   27
ATOM    129  H37 UNL A   1      39.754  29.994  32.466  1.00  0.00    +0.000 H 
ATOM    130  H38 UNL A   1      37.682  30.741  33.476  1.00  0.00    +0.000 H 
ATOM     27  C22 UNL A   1      39.254  30.618  30.508  1.00  0.00    +0.000 C 
ATOM    117  H25 UNL A   1      36.412  32.253  29.762  1.00  0.00    +0.000 H 
ATOM     86  C62 UNL A   1      37.865  30.924  32.477  1.00  0.00    +0.000 C 
ATOM     85  C61 UNL A   1      39.038  30.459  31.886  1.00  0.00    +0.000 C 
ATOM     24  C19 UNL A   1      36.938  31.639  31.715  1.00  0.00    +0.000 C 
ATOM     25  C20 UNL A   1      37.122  31.771  30.334  1.00  0.00    +0.000 C 
ATOM     26  C21 UNL A   1      38.269  31.248  29.730  1.00  0.00    +0.000 C 
ATOM    118  H26 UNL A   1      38.393  31.326  28.708  1.00  0.00    +0.000 H 
BRANCH   24   22
ATOM     22  C18 UNL A   1      35.744  32.261  32.334  1.00  0.00    +0.000 C 
ATOM     23  O2  UNL A   1      35.673  32.346  33.554  1.00  0.00    +0.000 O 
BRANCH   22   21
ATOM    116  H24 UNL A   1      33.975  32.060  31.415  1.00  0.00    +0.000 H 
ATOM     21  N3  UNL A   1      34.707  32.705  31.547  1.00  0.00    +0.000 N 
BRANCH   21   20
ATOM    114  H22 UNL A   1      33.925  34.607  31.504  1.00  0.00    +0.000 H 
ATOM    115  H23 UNL A   1      35.509  34.393  30.728  1.00  0.00    +0.000 H 
ATOM     20  C17 UNL A   1      34.533  33.984  30.883  1.00  0.00    +0.000 C 
BRANCH   20   19
ATOM    113  H21 UNL A   1      33.310  34.781  29.402  1.00  0.00    +0.000 H 
ATOM     19  C16 UNL A   1      33.871  33.876  29.515  1.00  0.00    +0.000 C 
ATOM    112  H20 UNL A   1      33.283  32.982  29.507  1.00  0.00    +0.000 H 
BRANCH   19   18
ATOM     18  C15 UNL A   1      34.804  33.829  28.304  1.00  0.00    +0.000 C 
ATOM    110  H18 UNL A   1      34.328  34.368  27.511  1.00  0.00    +0.000 H 
ATOM    111  H19 UNL A   1      35.725  34.248  28.651  1.00  0.00    +0.000 H 
BRANCH   18   17
ATOM     17  C14 UNL A   1      35.180  32.448  27.761  1.00  0.00    +0.000 C 
ATOM    108  H16 UNL A   1      35.208  32.522  26.694  1.00  0.00    +0.000 H 
ATOM    109  H17 UNL A   1      36.112  32.217  28.233  1.00  0.00    +0.000 H 
BRANCH   17   16
ATOM    106  H14 UNL A   1      34.890  30.480  28.484  1.00  0.00    +0.000 H 
ATOM    107  H15 UNL A   1      33.566  31.664  28.817  1.00  0.00    +0.000 H 
ATOM     16  C13 UNL A   1      34.268  31.267  28.113  1.00  0.00    +0.000 C 
BRANCH   16   15
ATOM    105  H13 UNL A   1      33.785  31.103  26.079  1.00  0.00    +0.000 H 
ATOM     15  C12 UNL A   1      33.411  30.684  26.991  1.00  0.00    +0.000 C 
ATOM    104  H12 UNL A   1      32.390  30.938  27.186  1.00  0.00    +0.000 H 
BRANCH   15   14
ATOM     14  N2  UNL A   1      33.498  29.249  26.845  1.00  0.00    +0.000 N 
ATOM    103  H11 UNL A   1      34.412  28.899  26.738  1.00  0.00    +0.000 H 
BRANCH   14   12
ATOM     12  C11 UNL A   1      32.506  28.293  26.832  1.00  0.00    +0.000 C 
ATOM     13  O1  UNL A   1      32.097  27.915  27.929  1.00  0.00    +0.000 O 
BRANCH   12   11
ATOM      3  C2  UNL A   1      31.406  26.400  23.828  1.00  0.00    +0.000 C 
ATOM      4  C3  UNL A   1      32.151  26.512  24.998  1.00  0.00    +0.000 C 
ATOM    131  H39 UNL A   1      31.152  30.596  25.031  1.00  0.00    +0.000 H 
ATOM    134  H42 UNL A   1      29.334  27.165  22.119  1.00  0.00    +0.000 H 
ATOM    133  H41 UNL A   1      28.398  29.359  22.086  1.00  0.00    +0.000 H 
ATOM    132  H40 UNL A   1      29.444  31.126  23.482  1.00  0.00    +0.000 H 
ATOM     11  C10 UNL A   1      31.910  27.810  25.581  1.00  0.00    +0.000 C 
ATOM     87  C63 UNL A   1      31.140  28.490  24.644  1.00  0.00    +0.000 C 
ATOM     88  C64 UNL A   1      30.720  29.846  24.466  1.00  0.00    +0.000 C 
ATOM     89  C65 UNL A   1      29.766  30.150  23.567  1.00  0.00    +0.000 C 
ATOM     90  C66 UNL A   1      29.184  29.133  22.715  1.00  0.00    +0.000 C 
ATOM     91  C67 UNL A   1      29.687  27.890  22.763  1.00  0.00    +0.000 C 
ATOM     92  N8  UNL A   1      30.693  27.576  23.687  1.00  0.00    +0.000 N 
BRANCH    3    2
ATOM     97  H5  UNL A   1      32.322  24.883  22.702  1.00  0.00    +0.000 H 
ATOM      2  C1  UNL A   1      31.343  25.296  22.823  1.00  0.00    +0.000 C 
ATOM     96  H4  UNL A   1      30.988  25.687  21.892  1.00  0.00    +0.000 H 
BRANCH    2    1
ATOM      1  N1  UNL A   1      30.443  24.246  23.272  1.00  0.00    +0.000 N 
ATOM     93  H1  UNL A   1      30.107  24.464  24.210  1.00  0.00    +0.000 H 
ATOM     94  H2  UNL A   1      30.939  23.355  23.288  1.00  0.00    +0.000 H 
ATOM     95  H3  UNL A   1      29.650  24.181  22.634  1.00  0.00    +0.000 H 
ENDBRANCH    2    1
ENDBRANCH    3    2
BRANCH    4    5
ATOM     98  H6  UNL A   1      31.546  24.456  26.602  1.00  0.00    +0.000 H 
ATOM     99  H7  UNL A   1      33.018  22.685  27.369  1.00  0.00    +0.000 H 
ATOM    100  H8  UNL A   1      35.343  22.648  26.678  1.00  0.00    +0.000 H 
ATOM      5  C4  UNL A   1      33.026  25.448  25.469  1.00  0.00    +0.000 C 
ATOM    102  H10 UNL A   1      34.744  26.174  24.475  1.00  0.00    +0.000 H 
ATOM      6  C5  UNL A   1      32.534  24.444  26.308  1.00  0.00    +0.000 C 
ATOM      7  C6  UNL A   1      33.382  23.424  26.750  1.00  0.00    +0.000 C 
ATOM      9  C8  UNL A   1      35.217  24.406  25.522  1.00  0.00    +0.000 C 
ATOM     10  C9  UNL A   1      34.374  25.429  25.085  1.00  0.00    +0.000 C 
ATOM    101  H9  UNL A   1      36.206  24.392  25.230  1.00  0.00    +0.000 H 
ATOM      8  C7  UNL A   1      34.721  23.404  26.354  1.00  0.00    +0.000 C 
ENDBRANCH    4    5
ENDBRANCH   12   11
ENDBRANCH   14   12
ENDBRANCH   15   14
ENDBRANCH   16   15
ENDBRANCH   17   16
ENDBRANCH   18   17
ENDBRANCH   19   18
ENDBRANCH   20   19
ENDBRANCH   21   20
ENDBRANCH   22   21
ENDBRANCH   24   22
ENDBRANCH   28   27
BRANCH   32   33
ATOM     33  C27 UNL A   1      45.243  33.691  28.832  1.00  0.00    +0.000 C 
ATOM     34  C28 UNL A   1      46.055  34.033  29.922  1.00  0.00    +0.000 C 
ATOM     35  F1  UNL A   1      46.365  33.113  30.847  1.00  0.00    +0.000 F 
ATOM     36  C29 UNL A   1      46.518  35.336  30.091  1.00  0.00    +0.000 C 
ATOM     37  F2  UNL A   1      47.249  35.651  31.168  1.00  0.00    +0.000 F 
ATOM     38  C30 UNL A   1      46.208  36.311  29.155  1.00  0.00    +0.000 C 
ATOM     39  F3  UNL A   1      46.656  37.563  29.317  1.00  0.00    +0.000 F 
ATOM     40  C31 UNL A   1      45.425  35.990  28.056  1.00  0.00    +0.000 C 
ATOM     41  F4  UNL A   1      45.134  36.929  27.144  1.00  0.00    +0.000 F 
ATOM     42  C32 UNL A   1      44.938  34.695  27.900  1.00  0.00    +0.000 C 
ATOM     43  F5  UNL A   1      44.169  34.419  26.835  1.00  0.00    +0.000 F 
ENDBRANCH   32   33
BRANCH   49   50
ATOM     50  C38 UNL A   1      47.457  27.498  25.894  1.00  0.00    +0.000 C 
ATOM     51  C39 UNL A   1      47.638  27.590  24.507  1.00  0.00    +0.000 C 
ATOM     52  F6  UNL A   1      46.669  28.100  23.732  1.00  0.00    +0.000 F 
ATOM     53  C40 UNL A   1      48.809  27.132  23.908  1.00  0.00    +0.000 C 
ATOM     54  F7  UNL A   1      48.950  27.199  22.577  1.00  0.00    +0.000 F 
ATOM     55  C41 UNL A   1      49.827  26.599  24.685  1.00  0.00    +0.000 C 
ATOM     56  F8  UNL A   1      50.958  26.171  24.108  1.00  0.00    +0.000 F 
ATOM     57  C42 UNL A   1      49.672  26.508  26.060  1.00  0.00    +0.000 C 
ATOM     58  F9  UNL A   1      50.659  26.004  26.814  1.00  0.00    +0.000 F 
ATOM     59  C43 UNL A   1      48.494  26.942  26.660  1.00  0.00    +0.000 C 
ATOM     60  F10 UNL A   1      48.368  26.836  27.991  1.00  0.00    +0.000 F 
ENDBRANCH   49   50
BRANCH   64   65
ATOM     65  C47 UNL A   1      41.344  24.594  27.556  1.00  0.00    +0.000 C 
ATOM     66  C48 UNL A   1      41.852  23.474  28.227  1.00  0.00    +0.000 C 
ATOM     67  F11 UNL A   1      42.895  23.609  29.059  1.00  0.00    +0.000 F 
ATOM     68  C49 UNL A   1      41.316  22.205  28.018  1.00  0.00    +0.000 C 
ATOM     69  F12 UNL A   1      41.845  21.145  28.644  1.00  0.00    +0.000 F 
ATOM     70  C50 UNL A   1      40.245  22.036  27.154  1.00  0.00    +0.000 C 
ATOM     71  F13 UNL A   1      39.726  20.816  26.957  1.00  0.00    +0.000 F 
ATOM     72  C51 UNL A   1      39.716  23.132  26.489  1.00  0.00    +0.000 C 
ATOM     73  F14 UNL A   1      38.673  22.975  25.662  1.00  0.00    +0.000 F 
ATOM     74  C52 UNL A   1      40.267  24.398  26.678  1.00  0.00    +0.000 C 
ATOM     75  F15 UNL A   1      39.742  25.439  26.015  1.00  0.00    +0.000 F 
ENDBRANCH   64   65
TORSDOF 18
ENDMDL
MODEL 6
REMARK VINA RESULT:     -10.8     37.081     42.648
ROOT
ATOM     28  C23 UNL A   1      14.194  53.827   5.206  1.00  0.00    +0.000 C 
ATOM     29  C24 UNL A   1      15.130  54.248   4.110  1.00  0.00    +0.000 C 
ATOM     30  N4  UNL A   1      15.565  53.567   3.080  1.00  0.00    +0.000 N 
ATOM     31  C25 UNL A   1      16.355  54.447   2.353  1.00  0.00    +0.000 C 
ATOM     32  C26 UNL A   1      17.069  54.208   1.226  1.00  0.00    +0.000 C 
ATOM     44  C33 UNL A   1      17.142  52.930   0.568  1.00  0.00    +0.000 C 
ATOM     45  C34 UNL A   1      17.873  52.575  -0.552  1.00  0.00    +0.000 C 
ATOM     46  C35 UNL A   1      17.607  51.233  -0.842  1.00  0.00    +0.000 C 
ATOM     47  C36 UNL A   1      16.741  50.740   0.122  1.00  0.00    +0.000 C 
ATOM     48  N5  UNL A   1      16.458  51.794   0.975  1.00  0.00    +0.000 N 
ATOM     49  C37 UNL A   1      16.212  49.408   0.252  1.00  0.00    +0.000 C 
ATOM     61  C44 UNL A   1      15.357  49.003   1.223  1.00  0.00    +0.000 C 
ATOM     62  N6  UNL A   1      14.832  49.730   2.282  1.00  0.00    +0.000 N 
ATOM     63  C45 UNL A   1      14.062  48.902   2.943  1.00  0.00    +0.000 C 
ATOM     64  C46 UNL A   1      13.265  49.142   4.196  1.00  0.00    +0.000 C 
ATOM     76  C53 UNL A   1      13.323  50.347   4.796  1.00  0.00    +0.000 C 
ATOM     77  C54 UNL A   1      12.595  50.728   6.003  1.00  0.00    +0.000 C 
ATOM     78  C55 UNL A   1      12.828  52.024   6.264  1.00  0.00    +0.000 C 
ATOM     79  C56 UNL A   1      13.756  52.554   5.265  1.00  0.00    +0.000 C 
ATOM     80  N7  UNL A   1      14.019  51.479   4.451  1.00  0.00    +0.000 N 
ATOM     81  C57 UNL A   1      13.982  47.557   2.353  1.00  0.00    +0.000 C 
ATOM     82  C58 UNL A   1      14.816  47.663   1.327  1.00  0.00    +0.000 C 
ATOM     83  C59 UNL A   1      16.310  55.721   3.037  1.00  0.00    +0.000 C 
ATOM     84  C60 UNL A   1      15.620  55.635   4.164  1.00  0.00    +0.000 C 
ATOM    119  H27 UNL A   1      18.508  53.195  -1.081  1.00  0.00    +0.000 H 
ATOM    120  H28 UNL A   1      17.990  50.700  -1.638  1.00  0.00    +0.000 H 
ATOM    121  H29 UNL A   1      15.861  51.744   1.756  1.00  0.00    +0.000 H 
ATOM    122  H30 UNL A   1      11.997  50.101   6.565  1.00  0.00    +0.000 H 
ATOM    123  H31 UNL A   1      12.418  52.560   7.045  1.00  0.00    +0.000 H 
ATOM    124  H32 UNL A   1      14.647  51.517   3.695  1.00  0.00    +0.000 H 
ATOM    125  H33 UNL A   1      13.424  46.744   2.656  1.00  0.00    +0.000 H 
ATOM    126  H34 UNL A   1      15.050  46.890   0.685  1.00  0.00    +0.000 H 
ATOM    127  H35 UNL A   1      16.757  56.585   2.692  1.00  0.00    +0.000 H 
ATOM    128  H36 UNL A   1      15.467  56.351   4.891  1.00  0.00    +0.000 H 
ENDROOT
BRANCH   28   27
ATOM    129  H37 UNL A   1      11.938  55.250   5.048  1.00  0.00    +0.000 H 
ATOM    130  H38 UNL A   1      11.113  56.969   6.543  1.00  0.00    +0.000 H 
ATOM     27  C22 UNL A   1      13.683  54.835   6.170  1.00  0.00    +0.000 C 
ATOM    117  H25 UNL A   1      14.379  56.309   9.111  1.00  0.00    +0.000 H 
ATOM     86  C62 UNL A   1      11.969  56.445   6.781  1.00  0.00    +0.000 C 
ATOM     85  C61 UNL A   1      12.468  55.486   5.902  1.00  0.00    +0.000 C 
ATOM     24  C19 UNL A   1      12.632  56.697   7.985  1.00  0.00    +0.000 C 
ATOM     25  C20 UNL A   1      13.863  56.085   8.246  1.00  0.00    +0.000 C 
ATOM     26  C21 UNL A   1      14.394  55.169   7.333  1.00  0.00    +0.000 C 
ATOM    118  H26 UNL A   1      15.313  54.735   7.516  1.00  0.00    +0.000 H 
BRANCH   24   22
ATOM     22  C18 UNL A   1      12.065  57.613   9.002  1.00  0.00    +0.000 C 
ATOM     23  O2  UNL A   1      12.296  58.814   8.928  1.00  0.00    +0.000 O 
BRANCH   22   21
ATOM    116  H24 UNL A   1      11.547  57.469  10.933  1.00  0.00    +0.000 H 
ATOM     21  N3  UNL A   1      11.317  57.114  10.043  1.00  0.00    +0.000 N 
BRANCH   21   20
ATOM    114  H22 UNL A   1       9.425  56.530  10.603  1.00  0.00    +0.000 H 
ATOM    115  H23 UNL A   1       9.971  55.992   8.999  1.00  0.00    +0.000 H 
ATOM     20  C17 UNL A   1      10.238  56.144  10.024  1.00  0.00    +0.000 C 
BRANCH   20   19
ATOM    113  H21 UNL A   1       9.708  54.333  10.897  1.00  0.00    +0.000 H 
ATOM     19  C16 UNL A   1      10.629  54.785  10.591  1.00  0.00    +0.000 C 
ATOM    112  H20 UNL A   1      11.329  54.951  11.383  1.00  0.00    +0.000 H 
BRANCH   19   18
ATOM     18  C15 UNL A   1      11.259  53.791   9.615  1.00  0.00    +0.000 C 
ATOM    110  H18 UNL A   1      10.507  53.074   9.357  1.00  0.00    +0.000 H 
ATOM    111  H19 UNL A   1      11.615  54.391   8.805  1.00  0.00    +0.000 H 
BRANCH   18   17
ATOM     17  C14 UNL A   1      12.487  53.014  10.099  1.00  0.00    +0.000 C 
ATOM    108  H16 UNL A   1      12.146  52.286  10.805  1.00  0.00    +0.000 H 
ATOM    109  H17 UNL A   1      12.926  52.622   9.206  1.00  0.00    +0.000 H 
BRANCH   17   16
ATOM    106  H14 UNL A   1      14.541  53.449  10.363  1.00  0.00    +0.000 H 
ATOM    107  H15 UNL A   1      13.393  54.831  10.560  1.00  0.00    +0.000 H 
ATOM     16  C13 UNL A   1      13.617  53.805  10.767  1.00  0.00    +0.000 C 
BRANCH   16   15
ATOM    105  H13 UNL A   1      12.790  53.331  12.635  1.00  0.00    +0.000 H 
ATOM     15  C12 UNL A   1      13.722  53.727  12.290  1.00  0.00    +0.000 C 
ATOM    104  H12 UNL A   1      13.927  54.710  12.660  1.00  0.00    +0.000 H 
BRANCH   15   14
ATOM     14  N2  UNL A   1      14.749  52.838  12.781  1.00  0.00    +0.000 N 
ATOM    103  H11 UNL A   1      15.645  53.240  12.853  1.00  0.00    +0.000 H 
BRANCH   14   12
ATOM     12  C11 UNL A   1      14.675  51.517  13.166  1.00  0.00    +0.000 C 
ATOM     13  O1  UNL A   1      15.230  51.225  14.225  1.00  0.00    +0.000 O 
BRANCH   12   11
ATOM      3  C2  UNL A   1      13.361  49.037  10.729  1.00  0.00    +0.000 C 
ATOM      4  C3  UNL A   1      14.329  49.944  11.149  1.00  0.00    +0.000 C 
ATOM    131  H39 UNL A   1      11.598  51.229  14.076  1.00  0.00    +0.000 H 
ATOM    134  H42 UNL A   1      11.160  47.374  11.161  1.00  0.00    +0.000 H 
ATOM    133  H41 UNL A   1       9.570  47.721  12.905  1.00  0.00    +0.000 H 
ATOM    132  H40 UNL A   1       9.741  49.778  14.286  1.00  0.00    +0.000 H 
ATOM     11  C10 UNL A   1      13.909  50.528  12.400  1.00  0.00    +0.000 C 
ATOM     87  C63 UNL A   1      12.616  50.055  12.604  1.00  0.00    +0.000 C 
ATOM     88  C64 UNL A   1      11.549  50.372  13.502  1.00  0.00    +0.000 C 
ATOM     89  C65 UNL A   1      10.481  49.559  13.602  1.00  0.00    +0.000 C 
ATOM     90  C66 UNL A   1      10.351  48.382  12.766  1.00  0.00    +0.000 C 
ATOM     91  C67 UNL A   1      11.267  48.168  11.811  1.00  0.00    +0.000 C 
ATOM     92  N8  UNL A   1      12.372  49.024  11.694  1.00  0.00    +0.000 N 
BRANCH    3    2
ATOM     97  H5  UNL A   1      13.541  48.834   8.646  1.00  0.00    +0.000 H 
ATOM      2  C1  UNL A   1      13.279  48.219   9.481  1.00  0.00    +0.000 C 
ATOM     96  H4  UNL A   1      12.281  47.847   9.369  1.00  0.00    +0.000 H 
BRANCH    2    1
ATOM      1  N1  UNL A   1      14.201  47.096   9.544  1.00  0.00    +0.000 N 
ATOM     93  H1  UNL A   1      14.592  47.030  10.484  1.00  0.00    +0.000 H 
ATOM     94  H2  UNL A   1      14.955  47.237   8.872  1.00  0.00    +0.000 H 
ATOM     95  H3  UNL A   1      13.704  46.234   9.321  1.00  0.00    +0.000 H 
ENDBRANCH    2    1
ENDBRANCH    3    2
BRANCH    4    5
ATOM     98  H6  UNL A   1      14.552  51.304   8.854  1.00  0.00    +0.000 H 
ATOM     99  H7  UNL A   1      16.569  51.754   7.582  1.00  0.00    +0.000 H 
ATOM    100  H8  UNL A   1      18.713  50.933   8.366  1.00  0.00    +0.000 H 
ATOM      5  C4  UNL A   1      15.531  50.214  10.375  1.00  0.00    +0.000 C 
ATOM    102  H10 UNL A   1      16.827  49.177  11.684  1.00  0.00    +0.000 H 
ATOM      6  C5  UNL A   1      15.461  50.951   9.189  1.00  0.00    +0.000 C 
ATOM      7  C6  UNL A   1      16.623  51.210   8.457  1.00  0.00    +0.000 C 
ATOM      9  C8  UNL A   1      17.931  49.997  10.085  1.00  0.00    +0.000 C 
ATOM     10  C9  UNL A   1      16.771  49.731  10.815  1.00  0.00    +0.000 C 
ATOM    101  H9  UNL A   1      18.842  49.645  10.418  1.00  0.00    +0.000 H 
ATOM      8  C7  UNL A   1      17.857  50.736   8.906  1.00  0.00    +0.000 C 
ENDBRANCH    4    5
ENDBRANCH   12   11
ENDBRANCH   14   12
ENDBRANCH   15   14
ENDBRANCH   16   15
ENDBRANCH   17   16
ENDBRANCH   18   17
ENDBRANCH   19   18
ENDBRANCH   20   19
ENDBRANCH   21   20
ENDBRANCH   22   21
ENDBRANCH   24   22
ENDBRANCH   28   27
BRANCH   32   33
ATOM     33  C27 UNL A   1      17.826  55.358   0.631  1.00  0.00    +0.000 C 
ATOM     34  C28 UNL A   1      19.085  55.740   1.118  1.00  0.00    +0.000 C 
ATOM     35  F1  UNL A   1      19.628  55.099   2.163  1.00  0.00    +0.000 F 
ATOM     36  C29 UNL A   1      19.773  56.814   0.559  1.00  0.00    +0.000 C 
ATOM     37  F2  UNL A   1      20.950  57.194   1.074  1.00  0.00    +0.000 F 
ATOM     38  C30 UNL A   1      19.235  57.501  -0.518  1.00  0.00    +0.000 C 
ATOM     39  F3  UNL A   1      19.900  58.533  -1.057  1.00  0.00    +0.000 F 
ATOM     40  C31 UNL A   1      18.003  57.126  -1.031  1.00  0.00    +0.000 C 
ATOM     41  F4  UNL A   1      17.486  57.782  -2.080  1.00  0.00    +0.000 F 
ATOM     42  C32 UNL A   1      17.299  56.071  -0.456  1.00  0.00    +0.000 C 
ATOM     43  F5  UNL A   1      16.101  55.742  -0.964  1.00  0.00    +0.000 F 
ENDBRANCH   32   33
BRANCH   49   50
ATOM     50  C38 UNL A   1      16.660  48.384  -0.746  1.00  0.00    +0.000 C 
ATOM     51  C39 UNL A   1      15.877  48.048  -1.859  1.00  0.00    +0.000 C 
ATOM     52  F6  UNL A   1      14.661  48.593  -2.017  1.00  0.00    +0.000 F 
ATOM     53  C40 UNL A   1      16.331  47.129  -2.802  1.00  0.00    +0.000 C 
ATOM     54  F7  UNL A   1      15.553  46.798  -3.841  1.00  0.00    +0.000 F 
ATOM     55  C41 UNL A   1      17.584  46.551  -2.662  1.00  0.00    +0.000 C 
ATOM     56  F8  UNL A   1      18.025  45.676  -3.577  1.00  0.00    +0.000 F 
ATOM     57  C42 UNL A   1      18.379  46.876  -1.574  1.00  0.00    +0.000 C 
ATOM     58  F9  UNL A   1      19.595  46.326  -1.444  1.00  0.00    +0.000 F 
ATOM     59  C43 UNL A   1      17.918  47.775  -0.617  1.00  0.00    +0.000 C 
ATOM     60  F10 UNL A   1      18.706  48.067   0.428  1.00  0.00    +0.000 F 
ENDBRANCH   49   50
BRANCH   64   65
ATOM     65  C47 UNL A   1      12.442  48.058   4.791  1.00  0.00    +0.000 C 
ATOM     66  C48 UNL A   1      12.937  47.281   5.847  1.00  0.00    +0.000 C 
ATOM     67  F11 UNL A   1      14.177  47.495   6.310  1.00  0.00    +0.000 F 
ATOM     68  C49 UNL A   1      12.176  46.256   6.405  1.00  0.00    +0.000 C 
ATOM     69  F12 UNL A   1      12.689  45.503   7.387  1.00  0.00    +0.000 F 
ATOM     70  C50 UNL A   1      10.895  46.006   5.935  1.00  0.00    +0.000 C 
ATOM     71  F13 UNL A   1      10.162  45.023   6.476  1.00  0.00    +0.000 F 
ATOM     72  C51 UNL A   1      10.378  46.771   4.901  1.00  0.00    +0.000 C 
ATOM     73  F14 UNL A   1       9.137  46.541   4.453  1.00  0.00    +0.000 F 
ATOM     74  C52 UNL A   1      11.148  47.781   4.326  1.00  0.00    +0.000 C 
ATOM     75  F15 UNL A   1      10.627  48.500   3.320  1.00  0.00    +0.000 F 
ENDBRANCH   64   65
TORSDOF 18
ENDMDL
MODEL 7
REMARK VINA RESULT:     -10.7     37.374     42.661
ROOT
ATOM     28  C23 UNL A   1      14.242  53.851   5.194  1.00  0.00    +0.000 C 
ATOM     29  C24 UNL A   1      15.168  54.278   4.092  1.00  0.00    +0.000 C 
ATOM     30  N4  UNL A   1      15.609  53.596   3.066  1.00  0.00    +0.000 N 
ATOM     31  C25 UNL A   1      16.385  54.481   2.329  1.00  0.00    +0.000 C 
ATOM     32  C26 UNL A   1      17.099  54.243   1.202  1.00  0.00    +0.000 C 
ATOM     44  C33 UNL A   1      17.187  52.962   0.553  1.00  0.00    +0.000 C 
ATOM     45  C34 UNL A   1      17.920  52.610  -0.566  1.00  0.00    +0.000 C 
ATOM     46  C35 UNL A   1      17.672  51.261  -0.846  1.00  0.00    +0.000 C 
ATOM     47  C36 UNL A   1      16.816  50.764   0.124  1.00  0.00    +0.000 C 
ATOM     48  N5  UNL A   1      16.521  51.820   0.971  1.00  0.00    +0.000 N 
ATOM     49  C37 UNL A   1      16.306  49.425   0.266  1.00  0.00    +0.000 C 
ATOM     61  C44 UNL A   1      15.460  49.015   1.242  1.00  0.00    +0.000 C 
ATOM     62  N6  UNL A   1      14.928  49.743   2.298  1.00  0.00    +0.000 N 
ATOM     63  C45 UNL A   1      14.172  48.908   2.967  1.00  0.00    +0.000 C 
ATOM     64  C46 UNL A   1      13.375  49.146   4.221  1.00  0.00    +0.000 C 
ATOM     76  C53 UNL A   1      13.419  50.356   4.812  1.00  0.00    +0.000 C 
ATOM     77  C54 UNL A   1      12.689  50.736   6.019  1.00  0.00    +0.000 C 
ATOM     78  C55 UNL A   1      12.904  52.037   6.269  1.00  0.00    +0.000 C 
ATOM     79  C56 UNL A   1      13.821  52.573   5.264  1.00  0.00    +0.000 C 
ATOM     80  N7  UNL A   1      14.098  51.495   4.457  1.00  0.00    +0.000 N 
ATOM     81  C57 UNL A   1      14.109  47.559   2.387  1.00  0.00    +0.000 C 
ATOM     82  C58 UNL A   1      14.938  47.668   1.358  1.00  0.00    +0.000 C 
ATOM     83  C59 UNL A   1      16.324  55.760   3.004  1.00  0.00    +0.000 C 
ATOM     84  C60 UNL A   1      15.639  55.671   4.135  1.00  0.00    +0.000 C 
ATOM    119  H27 UNL A   1      18.544  53.234  -1.102  1.00  0.00    +0.000 H 
ATOM    120  H28 UNL A   1      18.060  50.729  -1.639  1.00  0.00    +0.000 H 
ATOM    121  H29 UNL A   1      15.927  51.767   1.754  1.00  0.00    +0.000 H 
ATOM    122  H30 UNL A   1      12.102  50.105   6.587  1.00  0.00    +0.000 H 
ATOM    123  H31 UNL A   1      12.489  52.573   7.048  1.00  0.00    +0.000 H 
ATOM    124  H32 UNL A   1      14.723  51.537   3.698  1.00  0.00    +0.000 H 
ATOM    125  H33 UNL A   1      13.564  46.740   2.698  1.00  0.00    +0.000 H 
ATOM    126  H34 UNL A   1      15.181  46.894   0.721  1.00  0.00    +0.000 H 
ATOM    127  H35 UNL A   1      16.757  56.627   2.651  1.00  0.00    +0.000 H 
ATOM    128  H36 UNL A   1      15.477  56.391   4.856  1.00  0.00    +0.000 H 
ENDROOT
BRANCH   28   27
ATOM    129  H37 UNL A   1      12.022  55.322   4.978  1.00  0.00    +0.000 H 
ATOM    130  H38 UNL A   1      11.181  57.041   6.466  1.00  0.00    +0.000 H 
ATOM     27  C22 UNL A   1      13.719  54.859   6.152  1.00  0.00    +0.000 C 
ATOM    117  H25 UNL A   1      14.347  56.286   9.131  1.00  0.00    +0.000 H 
ATOM     86  C62 UNL A   1      12.019  56.497   6.726  1.00  0.00    +0.000 C 
ATOM     85  C61 UNL A   1      12.527  55.537   5.852  1.00  0.00    +0.000 C 
ATOM     24  C19 UNL A   1      12.647  56.722   7.953  1.00  0.00    +0.000 C 
ATOM     25  C20 UNL A   1      13.856  56.082   8.247  1.00  0.00    +0.000 C 
ATOM     26  C21 UNL A   1      14.398  55.165   7.342  1.00  0.00    +0.000 C 
ATOM    118  H26 UNL A   1      15.301  54.711   7.550  1.00  0.00    +0.000 H 
BRANCH   24   22
ATOM     22  C18 UNL A   1      12.065  57.638   8.962  1.00  0.00    +0.000 C 
ATOM     23  O2  UNL A   1      12.338  58.832   8.921  1.00  0.00    +0.000 O 
BRANCH   22   21
ATOM    116  H24 UNL A   1      11.481  57.446  10.869  1.00  0.00    +0.000 H 
ATOM     21  N3  UNL A   1      11.254  57.147   9.959  1.00  0.00    +0.000 N 
BRANCH   21   20
ATOM    114  H22 UNL A   1       9.299  56.689  10.405  1.00  0.00    +0.000 H 
ATOM    115  H23 UNL A   1       9.895  56.129   8.827  1.00  0.00    +0.000 H 
ATOM     20  C17 UNL A   1      10.115  56.253   9.866  1.00  0.00    +0.000 C 
BRANCH   20   19
ATOM    113  H21 UNL A   1       9.416  54.408  10.521  1.00  0.00    +0.000 H 
ATOM     19  C16 UNL A   1      10.380  54.865  10.435  1.00  0.00    +0.000 C 
ATOM    112  H20 UNL A   1      10.900  54.987  11.362  1.00  0.00    +0.000 H 
BRANCH   19   18
ATOM     18  C15 UNL A   1      11.200  53.912   9.565  1.00  0.00    +0.000 C 
ATOM    110  H18 UNL A   1      10.517  53.218   9.118  1.00  0.00    +0.000 H 
ATOM    111  H19 UNL A   1      11.719  54.547   8.878  1.00  0.00    +0.000 H 
BRANCH   18   17
ATOM     17  C14 UNL A   1      12.297  53.098  10.255  1.00  0.00    +0.000 C 
ATOM    108  H16 UNL A   1      11.846  52.592  11.083  1.00  0.00    +0.000 H 
ATOM    109  H17 UNL A   1      12.688  52.467   9.485  1.00  0.00    +0.000 H 
BRANCH   17   16
ATOM    106  H14 UNL A   1      14.379  53.245  10.606  1.00  0.00    +0.000 H 
ATOM    107  H15 UNL A   1      13.506  54.793  10.280  1.00  0.00    +0.000 H 
ATOM     16  C13 UNL A   1      13.518  53.853  10.791  1.00  0.00    +0.000 C 
BRANCH   16   15
ATOM    105  H13 UNL A   1      12.504  54.176  12.598  1.00  0.00    +0.000 H 
ATOM     15  C12 UNL A   1      13.524  54.214  12.276  1.00  0.00    +0.000 C 
ATOM    104  H12 UNL A   1      13.964  55.184  12.380  1.00  0.00    +0.000 H 
BRANCH   15   14
ATOM     14  N2  UNL A   1      14.251  53.296  13.121  1.00  0.00    +0.000 N 
ATOM    103  H11 UNL A   1      14.240  53.518  14.079  1.00  0.00    +0.000 H 
BRANCH   14   12
ATOM     12  C11 UNL A   1      14.958  52.157  12.798  1.00  0.00    +0.000 C 
ATOM     13  O1  UNL A   1      16.183  52.231  12.892  1.00  0.00    +0.000 O 
BRANCH   12   11
ATOM      3  C2  UNL A   1      13.787  48.968  11.291  1.00  0.00    +0.000 C 
ATOM      4  C3  UNL A   1      14.616  50.085  11.298  1.00  0.00    +0.000 C 
ATOM    131  H39 UNL A   1      12.170  51.660  14.334  1.00  0.00    +0.000 H 
ATOM    134  H42 UNL A   1      12.038  47.164  12.510  1.00  0.00    +0.000 H 
ATOM    133  H41 UNL A   1      10.697  47.708  14.407  1.00  0.00    +0.000 H 
ATOM    132  H40 UNL A   1      10.680  50.053  15.225  1.00  0.00    +0.000 H 
ATOM     11  C10 UNL A   1      14.288  50.902  12.442  1.00  0.00    +0.000 C 
ATOM     87  C63 UNL A   1      13.157  50.312  12.995  1.00  0.00    +0.000 C 
ATOM     88  C64 UNL A   1      12.199  50.686  13.989  1.00  0.00    +0.000 C 
ATOM     89  C65 UNL A   1      11.335  49.777  14.478  1.00  0.00    +0.000 C 
ATOM     90  C66 UNL A   1      11.306  48.419  13.973  1.00  0.00    +0.000 C 
ATOM     91  C67 UNL A   1      12.090  48.105  12.930  1.00  0.00    +0.000 C 
ATOM     92  N8  UNL A   1      12.978  49.057  12.409  1.00  0.00    +0.000 N 
BRANCH    3    2
ATOM     97  H5  UNL A   1      13.403  46.958  10.820  1.00  0.00    +0.000 H 
ATOM      2  C1  UNL A   1      13.673  47.854  10.302  1.00  0.00    +0.000 C 
ATOM     96  H4  UNL A   1      14.612  47.726   9.805  1.00  0.00    +0.000 H 
BRANCH    2    1
ATOM      1  N1  UNL A   1      12.647  48.151   9.314  1.00  0.00    +0.000 N 
ATOM     93  H1  UNL A   1      13.085  48.308   8.406  1.00  0.00    +0.000 H 
ATOM     94  H2  UNL A   1      12.137  48.988   9.594  1.00  0.00    +0.000 H 
ATOM     95  H3  UNL A   1      12.001  47.365   9.248  1.00  0.00    +0.000 H 
ENDBRANCH    2    1
ENDBRANCH    3    2
BRANCH    4    5
ATOM     98  H6  UNL A   1      17.192  49.356  11.275  1.00  0.00    +0.000 H 
ATOM     99  H7  UNL A   1      18.834  49.754   9.532  1.00  0.00    +0.000 H 
ATOM    100  H8  UNL A   1      18.205  50.943   7.513  1.00  0.00    +0.000 H 
ATOM      5  C4  UNL A   1      15.611  50.323  10.262  1.00  0.00    +0.000 C 
ATOM    102  H10 UNL A   1      14.294  51.373   8.985  1.00  0.00    +0.000 H 
ATOM      6  C5  UNL A   1      16.922  49.864  10.418  1.00  0.00    +0.000 C 
ATOM      7  C6  UNL A   1      17.867  50.093   9.415  1.00  0.00    +0.000 C 
ATOM      9  C8  UNL A   1      16.202  51.244   8.096  1.00  0.00    +0.000 C 
ATOM     10  C9  UNL A   1      15.258  51.022   9.100  1.00  0.00    +0.000 C 
ATOM    101  H9  UNL A   1      15.934  51.752   7.239  1.00  0.00    +0.000 H 
ATOM      8  C7  UNL A   1      17.507  50.780   8.254  1.00  0.00    +0.000 C 
ENDBRANCH    4    5
ENDBRANCH   12   11
ENDBRANCH   14   12
ENDBRANCH   15   14
ENDBRANCH   16   15
ENDBRANCH   17   16
ENDBRANCH   18   17
ENDBRANCH   19   18
ENDBRANCH   20   19
ENDBRANCH   21   20
ENDBRANCH   22   21
ENDBRANCH   24   22
ENDBRANCH   28   27
BRANCH   32   33
ATOM     33  C27 UNL A   1      17.838  55.400   0.596  1.00  0.00    +0.000 C 
ATOM     34  C28 UNL A   1      17.322  56.111  -0.497  1.00  0.00    +0.000 C 
ATOM     35  F1  UNL A   1      16.159  55.742  -1.053  1.00  0.00    +0.000 F 
ATOM     36  C29 UNL A   1      18.022  57.179  -1.052  1.00  0.00    +0.000 C 
ATOM     37  F2  UNL A   1      17.535  57.810  -2.129  1.00  0.00    +0.000 F 
ATOM     38  C30 UNL A   1      19.231  57.578  -0.504  1.00  0.00    +0.000 C 
ATOM     39  F3  UNL A   1      19.903  58.608  -1.037  1.00  0.00    +0.000 F 
ATOM     40  C31 UNL A   1      19.749  56.906   0.592  1.00  0.00    +0.000 C 
ATOM     41  F4  UNL A   1      20.912  57.298   1.131  1.00  0.00    +0.000 F 
ATOM     42  C32 UNL A   1      19.065  55.819   1.132  1.00  0.00    +0.000 C 
ATOM     43  F5  UNL A   1      19.600  55.177   2.182  1.00  0.00    +0.000 F 
ENDBRANCH   32   33
BRANCH   49   50
ATOM     50  C38 UNL A   1      16.766  48.400  -0.727  1.00  0.00    +0.000 C 
ATOM     51  C39 UNL A   1      15.998  48.069  -1.852  1.00  0.00    +0.000 C 
ATOM     52  F6  UNL A   1      14.787  48.618  -2.028  1.00  0.00    +0.000 F 
ATOM     53  C40 UNL A   1      16.464  47.149  -2.788  1.00  0.00    +0.000 C 
ATOM     54  F7  UNL A   1      15.701  46.822  -3.840  1.00  0.00    +0.000 F 
ATOM     55  C41 UNL A   1      17.712  46.566  -2.630  1.00  0.00    +0.000 C 
ATOM     56  F8  UNL A   1      18.164  45.690  -3.539  1.00  0.00    +0.000 F 
ATOM     57  C42 UNL A   1      18.492  46.886  -1.529  1.00  0.00    +0.000 C 
ATOM     58  F9  UNL A   1      19.703  46.332  -1.381  1.00  0.00    +0.000 F 
ATOM     59  C43 UNL A   1      18.020  47.787  -0.579  1.00  0.00    +0.000 C 
ATOM     60  F10 UNL A   1      18.792  48.075   0.479  1.00  0.00    +0.000 F 
ENDBRANCH   49   50
BRANCH   64   65
ATOM     65  C47 UNL A   1      12.570  48.056   4.827  1.00  0.00    +0.000 C 
ATOM     66  C48 UNL A   1      11.288  47.759   4.343  1.00  0.00    +0.000 C 
ATOM     67  F11 UNL A   1      10.768  48.483   3.341  1.00  0.00    +0.000 F 
ATOM     68  C49 UNL A   1      10.520  46.745   4.911  1.00  0.00    +0.000 C 
ATOM     69  F12 UNL A   1       9.283  46.509   4.455  1.00  0.00    +0.000 F 
ATOM     70  C50 UNL A   1      11.030  45.990   5.957  1.00  0.00    +0.000 C 
ATOM     71  F13 UNL A   1      10.293  45.011   6.500  1.00  0.00    +0.000 F 
ATOM     72  C51 UNL A   1      12.301  46.255   6.443  1.00  0.00    +0.000 C 
ATOM     73  F14 UNL A   1      12.802  45.520   7.445  1.00  0.00    +0.000 F 
ATOM     74  C52 UNL A   1      13.060  47.287   5.891  1.00  0.00    +0.000 C 
ATOM     75  F15 UNL A   1      14.283  47.527   6.388  1.00  0.00    +0.000 F 
ENDBRANCH   64   65
TORSDOF 18
ENDMDL
MODEL 8
REMARK VINA RESULT:     -10.6     33.655     38.114
ROOT
ATOM     28  C23 UNL A   1      11.069  27.074   1.999  1.00  0.00    +0.000 C 
ATOM     29  C24 UNL A   1      10.549  26.626   3.335  1.00  0.00    +0.000 C 
ATOM     30  N4  UNL A   1      10.836  25.548   4.020  1.00  0.00    +0.000 N 
ATOM     31  C25 UNL A   1      10.125  25.655   5.208  1.00  0.00    +0.000 C 
ATOM     32  C26 UNL A   1      10.050  24.770   6.231  1.00  0.00    +0.000 C 
ATOM     44  C33 UNL A   1      10.721  23.497   6.253  1.00  0.00    +0.000 C 
ATOM     45  C34 UNL A   1      10.671  22.511   7.222  1.00  0.00    +0.000 C 
ATOM     46  C35 UNL A   1      11.508  21.463   6.825  1.00  0.00    +0.000 C 
ATOM     47  C36 UNL A   1      12.048  21.779   5.587  1.00  0.00    +0.000 C 
ATOM     48  N5  UNL A   1      11.562  23.033   5.253  1.00  0.00    +0.000 N 
ATOM     49  C37 UNL A   1      12.940  20.996   4.774  1.00  0.00    +0.000 C 
ATOM     61  C44 UNL A   1      13.435  21.380   3.572  1.00  0.00    +0.000 C 
ATOM     62  N6  UNL A   1      13.194  22.549   2.863  1.00  0.00    +0.000 N 
ATOM     63  C45 UNL A   1      13.895  22.453   1.761  1.00  0.00    +0.000 C 
ATOM     64  C46 UNL A   1      13.991  23.418   0.610  1.00  0.00    +0.000 C 
ATOM     76  C53 UNL A   1      13.260  24.550   0.633  1.00  0.00    +0.000 C 
ATOM     77  C54 UNL A   1      13.263  25.581  -0.400  1.00  0.00    +0.000 C 
ATOM     78  C55 UNL A   1      12.482  26.599  -0.004  1.00  0.00    +0.000 C 
ATOM     79  C56 UNL A   1      11.890  26.273   1.293  1.00  0.00    +0.000 C 
ATOM     80  N7  UNL A   1      12.385  25.023   1.580  1.00  0.00    +0.000 N 
ATOM     81  C57 UNL A   1      14.694  21.222   1.662  1.00  0.00    +0.000 C 
ATOM     82  C58 UNL A   1      14.350  20.588   2.775  1.00  0.00    +0.000 C 
ATOM     83  C59 UNL A   1       9.422  26.920   5.168  1.00  0.00    +0.000 C 
ATOM     84  C60 UNL A   1       9.598  27.528   4.004  1.00  0.00    +0.000 C 
ATOM    119  H27 UNL A   1      10.111  22.543   8.089  1.00  0.00    +0.000 H 
ATOM    120  H28 UNL A   1      11.693  20.602   7.361  1.00  0.00    +0.000 H 
ATOM    121  H29 UNL A   1      11.781  23.521   4.427  1.00  0.00    +0.000 H 
ATOM    122  H30 UNL A   1      13.782  25.536  -1.291  1.00  0.00    +0.000 H 
ATOM    123  H31 UNL A   1      12.325  27.473  -0.531  1.00  0.00    +0.000 H 
ATOM    124  H32 UNL A   1      12.136  24.517   2.386  1.00  0.00    +0.000 H 
ATOM    125  H33 UNL A   1      15.349  20.928   0.922  1.00  0.00    +0.000 H 
ATOM    126  H34 UNL A   1      14.690  19.651   3.040  1.00  0.00    +0.000 H 
ATOM    127  H35 UNL A   1       8.857  27.299   5.944  1.00  0.00    +0.000 H 
ATOM    128  H36 UNL A   1       9.178  28.404   3.656  1.00  0.00    +0.000 H 
ENDROOT
BRANCH   28   27
ATOM    129  H37 UNL A   1      12.418  29.338   2.440  1.00  0.00    +0.000 H 
ATOM    130  H38 UNL A   1      11.884  31.593   1.729  1.00  0.00    +0.000 H 
ATOM     27  C22 UNL A   1      10.750  28.437   1.501  1.00  0.00    +0.000 C 
ATOM    117  H25 UNL A   1       8.556  30.139  -0.395  1.00  0.00    +0.000 H 
ATOM     86  C62 UNL A   1      11.305  30.800   1.410  1.00  0.00    +0.000 C 
ATOM     85  C61 UNL A   1      11.586  29.509   1.851  1.00  0.00    +0.000 C 
ATOM     24  C19 UNL A   1      10.238  31.019   0.535  1.00  0.00    +0.000 C 
ATOM     25  C20 UNL A   1       9.375  29.968   0.210  1.00  0.00    +0.000 C 
ATOM     26  C21 UNL A   1       9.621  28.683   0.705  1.00  0.00    +0.000 C 
ATOM    118  H26 UNL A   1       8.971  27.913   0.482  1.00  0.00    +0.000 H 
BRANCH   24   22
ATOM     22  C18 UNL A   1       9.987  32.353  -0.058  1.00  0.00    +0.000 C 
ATOM     23  O2  UNL A   1       9.196  33.115   0.484  1.00  0.00    +0.000 O 
BRANCH   22   21
ATOM    116  H24 UNL A   1      10.058  32.637  -2.040  1.00  0.00    +0.000 H 
ATOM     21  N3  UNL A   1      10.610  32.720  -1.229  1.00  0.00    +0.000 N 
BRANCH   21   20
ATOM    114  H22 UNL A   1      12.580  32.380  -1.713  1.00  0.00    +0.000 H 
ATOM    115  H23 UNL A   1      11.907  33.944  -2.219  1.00  0.00    +0.000 H 
ATOM     20  C17 UNL A   1      11.959  33.209  -1.444  1.00  0.00    +0.000 C 
BRANCH   20   19
ATOM    113  H21 UNL A   1      11.965  33.567   0.604  1.00  0.00    +0.000 H 
ATOM     19  C16 UNL A   1      12.565  33.888  -0.223  1.00  0.00    +0.000 C 
ATOM    112  H20 UNL A   1      12.554  34.944  -0.398  1.00  0.00    +0.000 H 
BRANCH   19   18
ATOM     18  C15 UNL A   1      13.997  33.493   0.142  1.00  0.00    +0.000 C 
ATOM    110  H18 UNL A   1      14.183  32.531  -0.289  1.00  0.00    +0.000 H 
ATOM    111  H19 UNL A   1      14.605  34.287  -0.237  1.00  0.00    +0.000 H 
BRANCH   18   17
ATOM     17  C14 UNL A   1      14.344  33.406   1.629  1.00  0.00    +0.000 C 
ATOM    108  H16 UNL A   1      14.464  34.407   1.988  1.00  0.00    +0.000 H 
ATOM    109  H17 UNL A   1      13.537  32.853   2.063  1.00  0.00    +0.000 H 
BRANCH   17   16
ATOM    106  H14 UNL A   1      15.541  32.429   3.077  1.00  0.00    +0.000 H 
ATOM    107  H15 UNL A   1      15.596  31.758   1.400  1.00  0.00    +0.000 H 
ATOM     16  C13 UNL A   1      15.602  32.626   2.027  1.00  0.00    +0.000 C 
BRANCH   16   15
ATOM    105  H13 UNL A   1      17.443  33.359   2.712  1.00  0.00    +0.000 H 
ATOM     15  C12 UNL A   1      16.953  33.290   1.763  1.00  0.00    +0.000 C 
ATOM    104  H12 UNL A   1      16.772  34.243   1.312  1.00  0.00    +0.000 H 
BRANCH   15   14
ATOM     14  N2  UNL A   1      17.838  32.543   0.901  1.00  0.00    +0.000 N 
ATOM    103  H11 UNL A   1      18.273  33.074   0.196  1.00  0.00    +0.000 H 
BRANCH   14   12
ATOM     12  C11 UNL A   1      18.170  31.206   0.907  1.00  0.00    +0.000 C 
ATOM     13  O1  UNL A   1      18.691  30.777   1.937  1.00  0.00    +0.000 O 
BRANCH   12   11
ATOM      3  C2  UNL A   1      18.145  28.856  -1.973  1.00  0.00    +0.000 C 
ATOM      4  C3  UNL A   1      18.816  29.607  -1.014  1.00  0.00    +0.000 C 
ATOM    131  H39 UNL A   1      15.150  31.490  -0.180  1.00  0.00    +0.000 H 
ATOM    134  H42 UNL A   1      15.869  27.614  -3.010  1.00  0.00    +0.000 H 
ATOM    133  H41 UNL A   1      13.644  28.318  -2.515  1.00  0.00    +0.000 H 
ATOM    132  H40 UNL A   1      13.314  30.387  -1.183  1.00  0.00    +0.000 H 
ATOM     11  C10 UNL A   1      17.846  30.320  -0.217  1.00  0.00    +0.000 C 
ATOM     87  C63 UNL A   1      16.625  30.084  -0.838  1.00  0.00    +0.000 C 
ATOM     88  C64 UNL A   1      15.305  30.624  -0.721  1.00  0.00    +0.000 C 
ATOM     89  C65 UNL A   1      14.265  30.010  -1.313  1.00  0.00    +0.000 C 
ATOM     90  C66 UNL A   1      14.454  28.828  -2.131  1.00  0.00    +0.000 C 
ATOM     91  C67 UNL A   1      15.706  28.412  -2.377  1.00  0.00    +0.000 C 
ATOM     92  N8  UNL A   1      16.792  29.062  -1.775  1.00  0.00    +0.000 N 
BRANCH    3    2
ATOM     97  H5  UNL A   1      19.642  28.356  -3.357  1.00  0.00    +0.000 H 
ATOM      2  C1  UNL A   1      18.675  27.998  -3.075  1.00  0.00    +0.000 C 
ATOM     96  H4  UNL A   1      18.006  28.042  -3.909  1.00  0.00    +0.000 H 
BRANCH    2    1
ATOM      1  N1  UNL A   1      18.796  26.617  -2.634  1.00  0.00    +0.000 N 
ATOM     93  H1  UNL A   1      19.221  26.592  -1.708  1.00  0.00    +0.000 H 
ATOM     94  H2  UNL A   1      19.381  26.100  -3.291  1.00  0.00    +0.000 H 
ATOM     95  H3  UNL A   1      17.871  26.190  -2.595  1.00  0.00    +0.000 H 
ENDBRANCH    2    1
ENDBRANCH    3    2
BRANCH    4    5
ATOM     98  H6  UNL A   1      20.400  28.087   0.518  1.00  0.00    +0.000 H 
ATOM     99  H7  UNL A   1      22.823  28.132   0.656  1.00  0.00    +0.000 H 
ATOM    100  H8  UNL A   1      24.092  29.693  -0.700  1.00  0.00    +0.000 H 
ATOM      5  C4  UNL A   1      20.268  29.630  -0.918  1.00  0.00    +0.000 C 
ATOM    102  H10 UNL A   1      20.518  31.195  -2.316  1.00  0.00    +0.000 H 
ATOM      6  C5  UNL A   1      20.937  28.753  -0.058  1.00  0.00    +0.000 C 
ATOM      7  C6  UNL A   1      22.332  28.779   0.021  1.00  0.00    +0.000 C 
ATOM      9  C8  UNL A   1      22.400  30.558  -1.612  1.00  0.00    +0.000 C 
ATOM     10  C9  UNL A   1      21.007  30.538  -1.689  1.00  0.00    +0.000 C 
ATOM    101  H9  UNL A   1      22.939  31.224  -2.187  1.00  0.00    +0.000 H 
ATOM      8  C7  UNL A   1      23.063  29.679  -0.757  1.00  0.00    +0.000 C 
ENDBRANCH    4    5
ENDBRANCH   12   11
ENDBRANCH   14   12
ENDBRANCH   15   14
ENDBRANCH   16   15
ENDBRANCH   17   16
ENDBRANCH   18   17
ENDBRANCH   19   18
ENDBRANCH   20   19
ENDBRANCH   21   20
ENDBRANCH   22   21
ENDBRANCH   24   22
ENDBRANCH   28   27
BRANCH   32   33
ATOM     33  C27 UNL A   1       9.214  25.154   7.416  1.00  0.00    +0.000 C 
ATOM     34  C28 UNL A   1       7.814  25.073   7.385  1.00  0.00    +0.000 C 
ATOM     35  F1  UNL A   1       7.185  24.681   6.268  1.00  0.00    +0.000 F 
ATOM     36  C29 UNL A   1       7.051  25.438   8.492  1.00  0.00    +0.000 C 
ATOM     37  F2  UNL A   1       5.713  25.403   8.422  1.00  0.00    +0.000 F 
ATOM     38  C30 UNL A   1       7.672  25.855   9.658  1.00  0.00    +0.000 C 
ATOM     39  F3  UNL A   1       6.937  26.203  10.724  1.00  0.00    +0.000 F 
ATOM     40  C31 UNL A   1       9.056  25.920   9.720  1.00  0.00    +0.000 C 
ATOM     41  F4  UNL A   1       9.659  26.311  10.852  1.00  0.00    +0.000 F 
ATOM     42  C32 UNL A   1       9.821  25.583   8.606  1.00  0.00    +0.000 C 
ATOM     43  F5  UNL A   1      11.157  25.672   8.690  1.00  0.00    +0.000 F 
ENDBRANCH   32   33
BRANCH   49   50
ATOM     50  C38 UNL A   1      13.332  19.641   5.282  1.00  0.00    +0.000 C 
ATOM     51  C39 UNL A   1      14.414  19.468   6.156  1.00  0.00    +0.000 C 
ATOM     52  F6  UNL A   1      15.176  20.516   6.503  1.00  0.00    +0.000 F 
ATOM     53  C40 UNL A   1      14.734  18.208   6.655  1.00  0.00    +0.000 C 
ATOM     54  F7  UNL A   1      15.792  18.058   7.464  1.00  0.00    +0.000 F 
ATOM     55  C41 UNL A   1      13.963  17.107   6.312  1.00  0.00    +0.000 C 
ATOM     56  F8  UNL A   1      14.265  15.897   6.804  1.00  0.00    +0.000 F 
ATOM     57  C42 UNL A   1      12.882  17.258   5.457  1.00  0.00    +0.000 C 
ATOM     58  F9  UNL A   1      12.129  16.197   5.133  1.00  0.00    +0.000 F 
ATOM     59  C43 UNL A   1      12.574  18.511   4.937  1.00  0.00    +0.000 C 
ATOM     60  F10 UNL A   1      11.527  18.628   4.107  1.00  0.00    +0.000 F 
ENDBRANCH   49   50
BRANCH   64   65
ATOM     65  C47 UNL A   1      14.858  23.122  -0.559  1.00  0.00    +0.000 C 
ATOM     66  C48 UNL A   1      16.228  23.417  -0.528  1.00  0.00    +0.000 C 
ATOM     67  F11 UNL A   1      16.762  23.997   0.557  1.00  0.00    +0.000 F 
ATOM     68  C49 UNL A   1      17.047  23.152  -1.623  1.00  0.00    +0.000 C 
ATOM     69  F12 UNL A   1      18.345  23.479  -1.580  1.00  0.00    +0.000 F 
ATOM     70  C50 UNL A   1      16.517  22.564  -2.761  1.00  0.00    +0.000 C 
ATOM     71  F13 UNL A   1      17.306  22.304  -3.813  1.00  0.00    +0.000 F 
ATOM     72  C51 UNL A   1      15.167  22.250  -2.811  1.00  0.00    +0.000 C 
ATOM     73  F14 UNL A   1      14.654  21.670  -3.904  1.00  0.00    +0.000 F 
ATOM     74  C52 UNL A   1      14.342  22.537  -1.724  1.00  0.00    +0.000 C 
ATOM     75  F15 UNL A   1      13.038  22.232  -1.803  1.00  0.00    +0.000 F 
ENDBRANCH   64   65
TORSDOF 18
ENDMDL
MODEL 9
REMARK VINA RESULT:     -10.6      1.085      2.589
ROOT
ATOM     28  C23 UNL A   1      41.365  26.091  27.651  1.00  0.00    +0.000 C 
ATOM     29  C24 UNL A   1      40.700  27.190  28.430  1.00  0.00    +0.000 C 
ATOM     30  N4  UNL A   1      41.160  28.371  28.760  1.00  0.00    +0.000 N 
ATOM     31  C25 UNL A   1      40.121  29.009  29.422  1.00  0.00    +0.000 C 
ATOM     32  C26 UNL A   1      40.113  30.234  30.001  1.00  0.00    +0.000 C 
ATOM     44  C33 UNL A   1      41.247  31.120  30.040  1.00  0.00    +0.000 C 
ATOM     45  C34 UNL A   1      41.353  32.361  30.642  1.00  0.00    +0.000 C 
ATOM     46  C35 UNL A   1      42.636  32.861  30.392  1.00  0.00    +0.000 C 
ATOM     47  C36 UNL A   1      43.342  31.912  29.669  1.00  0.00    +0.000 C 
ATOM     48  N5  UNL A   1      42.475  30.853  29.454  1.00  0.00    +0.000 N 
ATOM     49  C37 UNL A   1      44.705  31.969  29.209  1.00  0.00    +0.000 C 
ATOM     61  C44 UNL A   1      45.326  30.999  28.495  1.00  0.00    +0.000 C 
ATOM     62  N6  UNL A   1      44.830  29.772  28.078  1.00  0.00    +0.000 N 
ATOM     63  C45 UNL A   1      45.807  29.191  27.426  1.00  0.00    +0.000 C 
ATOM     64  C46 UNL A   1      45.841  27.832  26.780  1.00  0.00    +0.000 C 
ATOM     76  C53 UNL A   1      44.761  27.032  26.866  1.00  0.00    +0.000 C 
ATOM     77  C54 UNL A   1      44.644  25.701  26.278  1.00  0.00    +0.000 C 
ATOM     78  C55 UNL A   1      43.404  25.234  26.493  1.00  0.00    +0.000 C 
ATOM     79  C56 UNL A   1      42.650  26.218  27.271  1.00  0.00    +0.000 C 
ATOM     80  N7  UNL A   1      43.547  27.240  27.472  1.00  0.00    +0.000 N 
ATOM     81  C57 UNL A   1      47.027  30.005  27.323  1.00  0.00    +0.000 C 
ATOM     82  C58 UNL A   1      46.692  31.082  28.021  1.00  0.00    +0.000 C 
ATOM     83  C59 UNL A   1      38.993  28.102  29.414  1.00  0.00    +0.000 C 
ATOM     84  C60 UNL A   1      39.319  26.939  28.871  1.00  0.00    +0.000 C 
ATOM    119  H27 UNL A   1      40.613  32.837  31.183  1.00  0.00    +0.000 H 
ATOM    120  H28 UNL A   1      42.994  33.780  30.694  1.00  0.00    +0.000 H 
ATOM    121  H29 UNL A   1      42.699  30.032  28.959  1.00  0.00    +0.000 H 
ATOM    122  H30 UNL A   1      45.394  25.199  25.777  1.00  0.00    +0.000 H 
ATOM    123  H31 UNL A   1      43.040  24.327  26.161  1.00  0.00    +0.000 H 
ATOM    124  H32 UNL A   1      43.337  28.043  28.001  1.00  0.00    +0.000 H 
ATOM    125  H33 UNL A   1      47.913  29.794  26.838  1.00  0.00    +0.000 H 
ATOM    126  H34 UNL A   1      47.324  31.877  28.204  1.00  0.00    +0.000 H 
ATOM    127  H35 UNL A   1      38.057  28.331  29.783  1.00  0.00    +0.000 H 
ATOM    128  H36 UNL A   1      38.754  26.080  28.781  1.00  0.00    +0.000 H 
ENDROOT
BRANCH   28   27
ATOM    129  H37 UNL A   1      39.227  26.036  26.049  1.00  0.00    +0.000 H 
ATOM    130  H38 UNL A   1      37.855  24.145  25.403  1.00  0.00    +0.000 H 
ATOM     27  C22 UNL A   1      40.575  24.907  27.225  1.00  0.00    +0.000 C 
ATOM    117  H25 UNL A   1      40.415  21.561  27.515  1.00  0.00    +0.000 H 
ATOM     86  C62 UNL A   1      38.705  23.997  25.969  1.00  0.00    +0.000 C 
ATOM     85  C61 UNL A   1      39.472  25.088  26.376  1.00  0.00    +0.000 C 
ATOM     24  C19 UNL A   1      39.089  22.704  26.330  1.00  0.00    +0.000 C 
ATOM     25  C20 UNL A   1      40.163  22.513  27.207  1.00  0.00    +0.000 C 
ATOM     26  C21 UNL A   1      40.893  23.613  27.665  1.00  0.00    +0.000 C 
ATOM    118  H26 UNL A   1      41.671  23.473  28.330  1.00  0.00    +0.000 H 
BRANCH   24   22
ATOM     22  C18 UNL A   1      38.376  21.513  25.811  1.00  0.00    +0.000 C 
ATOM     23  O2  UNL A   1      38.995  20.471  25.628  1.00  0.00    +0.000 O 
BRANCH   22   21
ATOM    116  H24 UNL A   1      36.649  22.491  25.537  1.00  0.00    +0.000 H 
ATOM     21  N3  UNL A   1      37.038  21.588  25.500  1.00  0.00    +0.000 N 
BRANCH   21   20
ATOM    114  H22 UNL A   1      36.132  20.430  24.061  1.00  0.00    +0.000 H 
ATOM    115  H23 UNL A   1      36.441  19.641  25.623  1.00  0.00    +0.000 H 
ATOM     20  C17 UNL A   1      36.116  20.531  25.126  1.00  0.00    +0.000 C 
BRANCH   20   19
ATOM    113  H21 UNL A   1      34.709  21.726  26.083  1.00  0.00    +0.000 H 
ATOM     19  C16 UNL A   1      34.680  20.790  25.565  1.00  0.00    +0.000 C 
ATOM    112  H20 UNL A   1      34.368  19.958  26.162  1.00  0.00    +0.000 H 
BRANCH   19   18
ATOM     18  C15 UNL A   1      33.648  20.977  24.453  1.00  0.00    +0.000 C 
ATOM    110  H18 UNL A   1      34.088  21.610  23.710  1.00  0.00    +0.000 H 
ATOM    111  H19 UNL A   1      33.414  19.985  24.126  1.00  0.00    +0.000 H 
BRANCH   18   17
ATOM     17  C14 UNL A   1      32.301  21.591  24.842  1.00  0.00    +0.000 C 
ATOM    108  H16 UNL A   1      32.108  22.394  24.161  1.00  0.00    +0.000 H 
ATOM    109  H17 UNL A   1      31.611  20.774  24.802  1.00  0.00    +0.000 H 
BRANCH   17   16
ATOM    106  H14 UNL A   1      31.193  21.847  26.627  1.00  0.00    +0.000 H 
ATOM    107  H15 UNL A   1      32.990  21.760  26.799  1.00  0.00    +0.000 H 
ATOM     16  C13 UNL A   1      32.152  22.151  26.261  1.00  0.00    +0.000 C 
BRANCH   16   15
ATOM    105  H13 UNL A   1      31.914  23.878  27.426  1.00  0.00    +0.000 H 
ATOM     15  C12 UNL A   1      32.248  23.666  26.431  1.00  0.00    +0.000 C 
ATOM    104  H12 UNL A   1      31.643  24.124  25.677  1.00  0.00    +0.000 H 
BRANCH   15   14
ATOM     14  N2  UNL A   1      33.584  24.204  26.327  1.00  0.00    +0.000 N 
ATOM    103  H11 UNL A   1      34.093  24.215  27.169  1.00  0.00    +0.000 H 
BRANCH   14   12
ATOM     12  C11 UNL A   1      34.260  24.705  25.235  1.00  0.00    +0.000 C 
ATOM     13  O1  UNL A   1      35.471  24.487  25.195  1.00  0.00    +0.000 O 
BRANCH   12   11
ATOM      3  C2  UNL A   1      32.407  27.023  22.996  1.00  0.00    +0.000 C 
ATOM      4  C3  UNL A   1      32.951  26.691  24.233  1.00  0.00    +0.000 C 
ATOM    131  H39 UNL A   1      33.532  22.806  22.736  1.00  0.00    +0.000 H 
ATOM    134  H42 UNL A   1      32.164  26.730  20.230  1.00  0.00    +0.000 H 
ATOM    133  H41 UNL A   1      32.659  24.703  19.072  1.00  0.00    +0.000 H 
ATOM    132  H40 UNL A   1      33.217  22.677  20.395  1.00  0.00    +0.000 H 
ATOM     11  C10 UNL A   1      33.565  25.388  24.138  1.00  0.00    +0.000 C 
ATOM     87  C63 UNL A   1      33.225  24.920  22.874  1.00  0.00    +0.000 C 
ATOM     88  C64 UNL A   1      33.311  23.660  22.200  1.00  0.00    +0.000 C 
ATOM     89  C65 UNL A   1      33.107  23.585  20.873  1.00  0.00    +0.000 C 
ATOM     90  C66 UNL A   1      32.735  24.753  20.101  1.00  0.00    +0.000 C 
ATOM     91  C67 UNL A   1      32.494  25.902  20.750  1.00  0.00    +0.000 C 
ATOM     92  N8  UNL A   1      32.690  25.978  22.136  1.00  0.00    +0.000 N 
BRANCH    3    2
ATOM     97  H5  UNL A   1      31.831  28.433  21.551  1.00  0.00    +0.000 H 
ATOM      2  C1  UNL A   1      31.615  28.219  22.577  1.00  0.00    +0.000 C 
ATOM     96  H4  UNL A   1      31.881  29.051  23.194  1.00  0.00    +0.000 H 
BRANCH    2    1
ATOM      1  N1  UNL A   1      30.190  27.961  22.712  1.00  0.00    +0.000 N 
ATOM     93  H1  UNL A   1      29.946  27.910  23.701  1.00  0.00    +0.000 H 
ATOM     94  H2  UNL A   1      29.959  27.077  22.259  1.00  0.00    +0.000 H 
ATOM     95  H3  UNL A   1      29.665  28.716  22.271  1.00  0.00    +0.000 H 
ENDBRANCH    2    1
ENDBRANCH    3    2
BRANCH    4    5
ATOM     98  H6  UNL A   1      31.020  26.775  26.086  1.00  0.00    +0.000 H 
ATOM     99  H7  UNL A   1      30.872  28.241  28.015  1.00  0.00    +0.000 H 
ATOM    100  H8  UNL A   1      32.614  29.876  28.438  1.00  0.00    +0.000 H 
ATOM      5  C4  UNL A   1      32.849  27.569  25.390  1.00  0.00    +0.000 C 
ATOM    102  H10 UNL A   1      34.644  28.610  24.986  1.00  0.00    +0.000 H 
ATOM      6  C5  UNL A   1      31.761  27.471  26.262  1.00  0.00    +0.000 C 
ATOM      7  C6  UNL A   1      31.676  28.315  27.373  1.00  0.00    +0.000 C 
ATOM      9  C8  UNL A   1      33.761  29.363  26.746  1.00  0.00    +0.000 C 
ATOM     10  C9  UNL A   1      33.844  28.526  25.633  1.00  0.00    +0.000 C 
ATOM    101  H9  UNL A   1      34.500  30.060  26.924  1.00  0.00    +0.000 H 
ATOM      8  C7  UNL A   1      32.677  29.258  27.615  1.00  0.00    +0.000 C 
ENDBRANCH    4    5
ENDBRANCH   12   11
ENDBRANCH   14   12
ENDBRANCH   15   14
ENDBRANCH   16   15
ENDBRANCH   17   16
ENDBRANCH   18   17
ENDBRANCH   19   18
ENDBRANCH   20   19
ENDBRANCH   21   20
ENDBRANCH   22   21
ENDBRANCH   24   22
ENDBRANCH   28   27
BRANCH   32   33
ATOM     33  C27 UNL A   1      38.833  30.690  30.637  1.00  0.00    +0.000 C 
ATOM     34  C28 UNL A   1      38.615  30.574  32.017  1.00  0.00    +0.000 C 
ATOM     35  F1  UNL A   1      39.546  30.011  32.802  1.00  0.00    +0.000 F 
ATOM     36  C29 UNL A   1      37.419  30.996  32.592  1.00  0.00    +0.000 C 
ATOM     37  F2  UNL A   1      37.212  30.827  33.905  1.00  0.00    +0.000 F 
ATOM     38  C30 UNL A   1      36.435  31.574  31.805  1.00  0.00    +0.000 C 
ATOM     39  F3  UNL A   1      35.285  31.983  32.360  1.00  0.00    +0.000 F 
ATOM     40  C31 UNL A   1      36.638  31.722  30.442  1.00  0.00    +0.000 C 
ATOM     41  F4  UNL A   1      35.692  32.292  29.681  1.00  0.00    +0.000 F 
ATOM     42  C32 UNL A   1      37.821  31.274  29.859  1.00  0.00    +0.000 C 
ATOM     43  F5  UNL A   1      37.982  31.415  28.535  1.00  0.00    +0.000 F 
ENDBRANCH   32   33
BRANCH   49   50
ATOM     50  C38 UNL A   1      45.507  33.184  29.570  1.00  0.00    +0.000 C 
ATOM     51  C39 UNL A   1      45.514  34.328  28.761  1.00  0.00    +0.000 C 
ATOM     52  F6  UNL A   1      44.850  34.334  27.595  1.00  0.00    +0.000 F 
ATOM     53  C40 UNL A   1      46.227  35.464  29.136  1.00  0.00    +0.000 C 
ATOM     54  F7  UNL A   1      46.247  36.536  28.333  1.00  0.00    +0.000 F 
ATOM     55  C41 UNL A   1      46.922  35.484  30.336  1.00  0.00    +0.000 C 
ATOM     56  F8  UNL A   1      47.598  36.583  30.701  1.00  0.00    +0.000 F 
ATOM     57  C42 UNL A   1      46.921  34.366  31.156  1.00  0.00    +0.000 C 
ATOM     58  F9  UNL A   1      47.584  34.388  32.321  1.00  0.00    +0.000 F 
ATOM     59  C43 UNL A   1      46.229  33.221  30.773  1.00  0.00    +0.000 C 
ATOM     60  F10 UNL A   1      46.250  32.152  31.582  1.00  0.00    +0.000 F 
ENDBRANCH   49   50
BRANCH   64   65
ATOM     65  C47 UNL A   1      47.059  27.357  26.076  1.00  0.00    +0.000 C 
ATOM     66  C48 UNL A   1      47.233  27.592  24.705  1.00  0.00    +0.000 C 
ATOM     67  F11 UNL A   1      46.278  28.229  24.011  1.00  0.00    +0.000 F 
ATOM     68  C49 UNL A   1      48.367  27.141  24.035  1.00  0.00    +0.000 C 
ATOM     69  F12 UNL A   1      48.489  27.346  22.717  1.00  0.00    +0.000 F 
ATOM     70  C50 UNL A   1      49.363  26.469  24.727  1.00  0.00    +0.000 C 
ATOM     71  F13 UNL A   1      50.457  26.040  24.083  1.00  0.00    +0.000 F 
ATOM     72  C51 UNL A   1      49.221  26.236  26.087  1.00  0.00    +0.000 C 
ATOM     73  F14 UNL A   1      50.186  25.598  26.762  1.00  0.00    +0.000 F 
ATOM     74  C52 UNL A   1      48.074  26.666  26.754  1.00  0.00    +0.000 C 
ATOM     75  F15 UNL A   1      47.958  26.419  28.067  1.00  0.00    +0.000 F 
ENDBRANCH   64   65
TORSDOF 18
ENDMDL
MODEL 10
REMARK VINA RESULT:     -10.6     37.707     42.630
ROOT
ATOM     28  C23 UNL A   1      13.875  54.124   4.723  1.00  0.00    +0.000 C 
ATOM     29  C24 UNL A   1      13.438  52.687   4.725  1.00  0.00    +0.000 C 
ATOM     30  N4  UNL A   1      13.845  51.693   3.976  1.00  0.00    +0.000 N 
ATOM     31  C25 UNL A   1      13.161  50.574   4.431  1.00  0.00    +0.000 C 
ATOM     32  C26 UNL A   1      13.200  49.307   3.951  1.00  0.00    +0.000 C 
ATOM     44  C33 UNL A   1      13.988  48.892   2.821  1.00  0.00    +0.000 C 
ATOM     45  C34 UNL A   1      14.059  47.643   2.230  1.00  0.00    +0.000 C 
ATOM     46  C35 UNL A   1      14.980  47.707   1.178  1.00  0.00    +0.000 C 
ATOM     47  C36 UNL A   1      15.451  49.008   1.089  1.00  0.00    +0.000 C 
ATOM     48  N5  UNL A   1      14.840  49.721   2.107  1.00  0.00    +0.000 N 
ATOM     49  C37 UNL A   1      16.390  49.557   0.145  1.00  0.00    +0.000 C 
ATOM     61  C44 UNL A   1      16.811  50.845   0.128  1.00  0.00    +0.000 C 
ATOM     62  N6  UNL A   1      16.441  51.894   0.957  1.00  0.00    +0.000 N 
ATOM     63  C45 UNL A   1      17.116  52.938   0.542  1.00  0.00    +0.000 C 
ATOM     64  C46 UNL A   1      17.088  54.352   1.054  1.00  0.00    +0.000 C 
ATOM     76  C53 UNL A   1      16.254  54.673   2.063  1.00  0.00    +0.000 C 
ATOM     77  C54 UNL A   1      16.129  55.995   2.671  1.00  0.00    +0.000 C 
ATOM     78  C55 UNL A   1      15.268  55.925   3.698  1.00  0.00    +0.000 C 
ATOM     79  C56 UNL A   1      14.747  54.561   3.795  1.00  0.00    +0.000 C 
ATOM     80  N7  UNL A   1      15.366  53.895   2.764  1.00  0.00    +0.000 N 
ATOM     81  C57 UNL A   1      18.024  52.657  -0.580  1.00  0.00    +0.000 C 
ATOM     82  C58 UNL A   1      17.774  51.376  -0.816  1.00  0.00    +0.000 C 
ATOM     83  C59 UNL A   1      12.341  51.001   5.544  1.00  0.00    +0.000 C 
ATOM     84  C60 UNL A   1      12.426  52.311   5.724  1.00  0.00    +0.000 C 
ATOM    119  H27 UNL A   1      13.524  46.807   2.515  1.00  0.00    +0.000 H 
ATOM    120  H28 UNL A   1      15.261  46.921   0.573  1.00  0.00    +0.000 H 
ATOM    121  H29 UNL A   1      14.988  50.676   2.295  1.00  0.00    +0.000 H 
ATOM    122  H30 UNL A   1      16.625  56.846   2.361  1.00  0.00    +0.000 H 
ATOM    123  H31 UNL A   1      15.014  56.708   4.320  1.00  0.00    +0.000 H 
ATOM    124  H32 UNL A   1      15.188  52.951   2.550  1.00  0.00    +0.000 H 
ATOM    125  H33 UNL A   1      18.682  53.290  -1.060  1.00  0.00    +0.000 H 
ATOM    126  H34 UNL A   1      18.208  50.828  -1.574  1.00  0.00    +0.000 H 
ATOM    127  H35 UNL A   1      11.766  50.369   6.122  1.00  0.00    +0.000 H 
ATOM    128  H36 UNL A   1      11.915  52.911   6.391  1.00  0.00    +0.000 H 
ENDROOT
BRANCH   28   27
ATOM    129  H37 UNL A   1      11.761  55.758   4.693  1.00  0.00    +0.000 H 
ATOM    130  H38 UNL A   1      11.027  57.330   6.385  1.00  0.00    +0.000 H 
ATOM     27  C22 UNL A   1      13.414  55.037   5.800  1.00  0.00    +0.000 C 
ATOM    117  H25 UNL A   1      14.111  56.034   8.935  1.00  0.00    +0.000 H 
ATOM     86  C62 UNL A   1      11.824  56.702   6.575  1.00  0.00    +0.000 C 
ATOM     85  C61 UNL A   1      12.273  55.827   5.588  1.00  0.00    +0.000 C 
ATOM     24  C19 UNL A   1      12.454  56.728   7.821  1.00  0.00    +0.000 C 
ATOM     25  C20 UNL A   1      13.615  55.976   8.032  1.00  0.00    +0.000 C 
ATOM     26  C21 UNL A   1      14.102  55.145   7.019  1.00  0.00    +0.000 C 
ATOM    118  H26 UNL A   1      14.971  54.608   7.168  1.00  0.00    +0.000 H 
BRANCH   24   22
ATOM     22  C18 UNL A   1      11.927  57.549   8.936  1.00  0.00    +0.000 C 
ATOM     23  O2  UNL A   1      12.319  58.701   9.075  1.00  0.00    +0.000 O 
BRANCH   22   21
ATOM    116  H24 UNL A   1      10.127  57.392   9.803  1.00  0.00    +0.000 H 
ATOM     21  N3  UNL A   1      11.033  57.008   9.832  1.00  0.00    +0.000 N 
BRANCH   21   20
ATOM    114  H22 UNL A   1      12.192  55.517  10.649  1.00  0.00    +0.000 H 
ATOM    115  H23 UNL A   1      11.150  56.409  11.779  1.00  0.00    +0.000 H 
ATOM     20  C17 UNL A   1      11.230  55.957  10.813  1.00  0.00    +0.000 C 
BRANCH   20   19
ATOM    113  H21 UNL A   1       9.324  55.252  11.252  1.00  0.00    +0.000 H 
ATOM     19  C16 UNL A   1      10.179  54.855  10.746  1.00  0.00    +0.000 C 
ATOM    112  H20 UNL A   1      10.597  53.979  11.197  1.00  0.00    +0.000 H 
BRANCH   19   18
ATOM     18  C15 UNL A   1       9.680  54.467   9.354  1.00  0.00    +0.000 C 
ATOM    110  H18 UNL A   1       8.788  53.889   9.483  1.00  0.00    +0.000 H 
ATOM    111  H19 UNL A   1       9.550  55.397   8.841  1.00  0.00    +0.000 H 
BRANCH   18   17
ATOM     17  C14 UNL A   1      10.629  53.657   8.468  1.00  0.00    +0.000 C 
ATOM    108  H16 UNL A   1      10.037  53.193   7.707  1.00  0.00    +0.000 H 
ATOM    109  H17 UNL A   1      11.349  54.370   8.123  1.00  0.00    +0.000 H 
BRANCH   17   16
ATOM    106  H14 UNL A   1      12.294  52.350   8.488  1.00  0.00    +0.000 H 
ATOM    107  H15 UNL A   1      11.721  52.950  10.093  1.00  0.00    +0.000 H 
ATOM     16  C13 UNL A   1      11.465  52.557   9.131  1.00  0.00    +0.000 C 
BRANCH   16   15
ATOM    105  H13 UNL A   1       9.876  51.221   8.833  1.00  0.00    +0.000 H 
ATOM     15  C12 UNL A   1      10.770  51.228   9.423  1.00  0.00    +0.000 C 
ATOM    104  H12 UNL A   1      10.582  51.175  10.475  1.00  0.00    +0.000 H 
BRANCH   15   14
ATOM     14  N2  UNL A   1      11.519  50.055   9.040  1.00  0.00    +0.000 N 
ATOM    103  H11 UNL A   1      11.389  49.767   8.108  1.00  0.00    +0.000 H 
BRANCH   14   12
ATOM     12  C11 UNL A   1      12.388  49.274   9.771  1.00  0.00    +0.000 C 
ATOM     13  O1  UNL A   1      12.342  48.062   9.561  1.00  0.00    +0.000 O 
BRANCH   12   11
ATOM      3  C2  UNL A   1      15.311  50.860  11.433  1.00  0.00    +0.000 C 
ATOM      4  C3  UNL A   1      14.664  50.369  10.303  1.00  0.00    +0.000 C 
ATOM    131  H39 UNL A   1      11.796  48.703  12.887  1.00  0.00    +0.000 H 
ATOM    134  H42 UNL A   1      15.350  51.791  14.065  1.00  0.00    +0.000 H 
ATOM    133  H41 UNL A   1      13.708  51.203  15.694  1.00  0.00    +0.000 H 
ATOM    132  H40 UNL A   1      11.989  49.512  15.101  1.00  0.00    +0.000 H 
ATOM     11  C10 UNL A   1      13.371  49.859  10.690  1.00  0.00    +0.000 C 
ATOM     87  C63 UNL A   1      13.358  49.925  12.080  1.00  0.00    +0.000 C 
ATOM     88  C64 UNL A   1      12.510  49.415  13.113  1.00  0.00    +0.000 C 
ATOM     89  C65 UNL A   1      12.637  49.857  14.377  1.00  0.00    +0.000 C 
ATOM     90  C66 UNL A   1      13.668  50.809  14.741  1.00  0.00    +0.000 C 
ATOM     91  C67 UNL A   1      14.568  51.167  13.812  1.00  0.00    +0.000 C 
ATOM     92  N8  UNL A   1      14.446  50.694  12.498  1.00  0.00    +0.000 N 
BRANCH    3    2
ATOM     97  H5  UNL A   1      16.723  51.982  12.508  1.00  0.00    +0.000 H 
ATOM      2  C1  UNL A   1      16.682  51.433  11.591  1.00  0.00    +0.000 C 
ATOM     96  H4  UNL A   1      16.891  52.078  10.763  1.00  0.00    +0.000 H 
BRANCH    2    1
ATOM      1  N1  UNL A   1      17.677  50.373  11.633  1.00  0.00    +0.000 N 
ATOM     93  H1  UNL A   1      17.984  50.158  10.684  1.00  0.00    +0.000 H 
ATOM     94  H2  UNL A   1      17.269  49.539  12.055  1.00  0.00    +0.000 H 
ATOM     95  H3  UNL A   1      18.476  50.678  12.188  1.00  0.00    +0.000 H 
ENDBRANCH    2    1
ENDBRANCH    3    2
BRANCH    4    5
ATOM     98  H6  UNL A   1      14.709  52.365   8.520  1.00  0.00    +0.000 H 
ATOM     99  H7  UNL A   1      15.750  52.378   6.327  1.00  0.00    +0.000 H 
ATOM    100  H8  UNL A   1      16.927  50.414   5.526  1.00  0.00    +0.000 H 
ATOM      5  C4  UNL A   1      15.280  50.386   8.984  1.00  0.00    +0.000 C 
ATOM    102  H10 UNL A   1      15.997  48.401   9.093  1.00  0.00    +0.000 H 
ATOM      6  C5  UNL A   1      15.206  51.528   8.181  1.00  0.00    +0.000 C 
ATOM      7  C6  UNL A   1      15.806  51.535   6.918  1.00  0.00    +0.000 C 
ATOM      9  C8  UNL A   1      16.553  49.262   7.251  1.00  0.00    +0.000 C 
ATOM     10  C9  UNL A   1      15.949  49.250   8.509  1.00  0.00    +0.000 C 
ATOM    101  H9  UNL A   1      17.051  48.425   6.909  1.00  0.00    +0.000 H 
ATOM      8  C7  UNL A   1      16.481  50.404   6.456  1.00  0.00    +0.000 C 
ENDBRANCH    4    5
ENDBRANCH   12   11
ENDBRANCH   14   12
ENDBRANCH   15   14
ENDBRANCH   16   15
ENDBRANCH   17   16
ENDBRANCH   18   17
ENDBRANCH   19   18
ENDBRANCH   20   19
ENDBRANCH   21   20
ENDBRANCH   22   21
ENDBRANCH   24   22
ENDBRANCH   28   27
BRANCH   32   33
ATOM     33  C27 UNL A   1      12.366  48.277   4.653  1.00  0.00    +0.000 C 
ATOM     34  C28 UNL A   1      12.874  47.522   5.720  1.00  0.00    +0.000 C 
ATOM     35  F1  UNL A   1      14.145  47.684   6.116  1.00  0.00    +0.000 F 
ATOM     36  C29 UNL A   1      12.089  46.565   6.359  1.00  0.00    +0.000 C 
ATOM     37  F2  UNL A   1      12.613  45.820   7.342  1.00  0.00    +0.000 F 
ATOM     38  C30 UNL A   1      10.774  46.370   5.968  1.00  0.00    +0.000 C 
ATOM     39  F3  UNL A   1      10.019  45.451   6.585  1.00  0.00    +0.000 F 
ATOM     40  C31 UNL A   1      10.242  47.121   4.931  1.00  0.00    +0.000 C 
ATOM     41  F4  UNL A   1       8.967  46.942   4.559  1.00  0.00    +0.000 F 
ATOM     42  C32 UNL A   1      11.033  48.058   4.271  1.00  0.00    +0.000 C 
ATOM     43  F5  UNL A   1      10.496  48.759   3.260  1.00  0.00    +0.000 F 
ENDBRANCH   32   33
BRANCH   49   50
ATOM     50  C38 UNL A   1      16.922  48.640  -0.915  1.00  0.00    +0.000 C 
ATOM     51  C39 UNL A   1      18.092  47.893  -0.722  1.00  0.00    +0.000 C 
ATOM     52  F6  UNL A   1      18.808  48.039   0.402  1.00  0.00    +0.000 F 
ATOM     53  C40 UNL A   1      18.545  47.011  -1.700  1.00  0.00    +0.000 C 
ATOM     54  F7  UNL A   1      19.684  46.330  -1.511  1.00  0.00    +0.000 F 
ATOM     55  C41 UNL A   1      17.824  46.842  -2.873  1.00  0.00    +0.000 C 
ATOM     56  F8  UNL A   1      18.255  45.982  -3.808  1.00  0.00    +0.000 F 
ATOM     57  C42 UNL A   1      16.659  47.564  -3.080  1.00  0.00    +0.000 C 
ATOM     58  F9  UNL A   1      15.955  47.393  -4.207  1.00  0.00    +0.000 F 
ATOM     59  C43 UNL A   1      16.216  48.464  -2.115  1.00  0.00    +0.000 C 
ATOM     60  F10 UNL A   1      15.089  49.154  -2.343  1.00  0.00    +0.000 F 
ENDBRANCH   49   50
BRANCH   64   65
ATOM     65  C47 UNL A   1      17.944  55.399   0.442  1.00  0.00    +0.000 C 
ATOM     66  C48 UNL A   1      19.162  55.764   1.033  1.00  0.00    +0.000 C 
ATOM     67  F11 UNL A   1      19.549  55.185   2.178  1.00  0.00    +0.000 F 
ATOM     68  C49 UNL A   1      19.967  56.752   0.471  1.00  0.00    +0.000 C 
ATOM     69  F12 UNL A   1      21.107  57.109   1.077  1.00  0.00    +0.000 F 
ATOM     70  C50 UNL A   1      19.583  57.376  -0.707  1.00  0.00    +0.000 C 
ATOM     71  F13 UNL A   1      20.361  58.323  -1.250  1.00  0.00    +0.000 F 
ATOM     72  C51 UNL A   1      18.390  57.022  -1.318  1.00  0.00    +0.000 C 
ATOM     73  F14 UNL A   1      18.022  57.613  -2.462  1.00  0.00    +0.000 F 
ATOM     74  C52 UNL A   1      17.571  56.050  -0.743  1.00  0.00    +0.000 C 
ATOM     75  F15 UNL A   1      16.418  55.734  -1.350  1.00  0.00    +0.000 F 
ENDBRANCH   64   65
TORSDOF 18
ENDMDL
