MODEL 1
REMARK VINA RESULT:     -10.1      0.000      0.000
ROOT
ATOM    129  H38 UNL A   1      51.080  22.297  15.025  1.00  0.00    +0.000 H 
ATOM    130  H39 UNL A   1      50.828  21.188  12.732  1.00  0.00    +0.000 H 
ATOM     33  C24 UNL A   1      53.244  20.047  11.739  1.00  0.00    +0.000 C 
ATOM     34  C25 UNL A   1      53.004  20.658  13.092  1.00  0.00    +0.000 C 
ATOM     35  N5  UNL A   1      53.831  20.796  14.098  1.00  0.00    +0.000 N 
ATOM     36  C26 UNL A   1      53.118  21.467  15.084  1.00  0.00    +0.000 C 
ATOM     37  C27 UNL A   1      53.514  21.798  16.335  1.00  0.00    +0.000 C 
ATOM     49  C34 UNL A   1      54.807  21.488  16.887  1.00  0.00    +0.000 C 
ATOM     50  C35 UNL A   1      55.281  21.729  18.165  1.00  0.00    +0.000 C 
ATOM     51  C36 UNL A   1      56.607  21.290  18.230  1.00  0.00    +0.000 C 
ATOM     52  C37 UNL A   1      56.943  20.730  17.009  1.00  0.00    +0.000 C 
ATOM     53  N6  UNL A   1      55.832  20.864  16.192  1.00  0.00    +0.000 N 
ATOM     54  C38 UNL A   1      58.186  20.118  16.614  1.00  0.00    +0.000 C 
ATOM     66  C45 UNL A   1      58.439  19.593  15.391  1.00  0.00    +0.000 C 
ATOM     67  N7  UNL A   1      57.600  19.506  14.289  1.00  0.00    +0.000 N 
ATOM     68  C46 UNL A   1      58.302  18.926  13.346  1.00  0.00    +0.000 C 
ATOM     69  C47 UNL A   1      57.887  18.547  11.949  1.00  0.00    +0.000 C 
ATOM     81  C54 UNL A   1      56.624  18.787  11.548  1.00  0.00    +0.000 C 
ATOM     82  C55 UNL A   1      56.081  18.477  10.228  1.00  0.00    +0.000 C 
ATOM     83  C56 UNL A   1      54.814  18.914  10.162  1.00  0.00    +0.000 C 
ATOM     84  C57 UNL A   1      54.441  19.501  11.450  1.00  0.00    +0.000 C 
ATOM     85  N8  UNL A   1      55.572  19.364  12.216  1.00  0.00    +0.000 N 
ATOM     86  C58 UNL A   1      59.683  18.610  13.737  1.00  0.00    +0.000 C 
ATOM     87  C59 UNL A   1      59.701  18.998  15.004  1.00  0.00    +0.000 C 
ATOM     88  C60 UNL A   1      51.807  21.749  14.540  1.00  0.00    +0.000 C 
ATOM     89  C61 UNL A   1      51.663  21.211  13.337  1.00  0.00    +0.000 C 
ATOM    121  H30 UNL A   1      54.748  22.161  18.936  1.00  0.00    +0.000 H 
ATOM    122  H31 UNL A   1      57.229  21.369  19.050  1.00  0.00    +0.000 H 
ATOM    123  H32 UNL A   1      55.778  20.561  15.256  1.00  0.00    +0.000 H 
ATOM    124  H33 UNL A   1      56.591  17.999   9.469  1.00  0.00    +0.000 H 
ATOM    125  H34 UNL A   1      54.200  18.846   9.335  1.00  0.00    +0.000 H 
ATOM    126  H35 UNL A   1      55.625  19.653  13.156  1.00  0.00    +0.000 H 
ATOM    127  H36 UNL A   1      60.440  18.196  13.172  1.00  0.00    +0.000 H 
ATOM    128  H37 UNL A   1      60.511  18.891  15.634  1.00  0.00    +0.000 H 
ENDROOT
BRANCH   33   32
ATOM    131  H40 UNL A   1      51.371  18.222  11.160  1.00  0.00    +0.000 H 
ATOM    132  H41 UNL A   1      49.694  18.269   9.412  1.00  0.00    +0.000 H 
ATOM    119  H28 UNL A   1      50.936  22.134   8.313  1.00  0.00    +0.000 H 
ATOM    120  H29 UNL A   1      52.759  21.998   9.911  1.00  0.00    +0.000 H 
ATOM     90  C62 UNL A   1      51.294  19.046  10.543  1.00  0.00    +0.000 C 
ATOM     91  C63 UNL A   1      50.300  19.090   9.568  1.00  0.00    +0.000 C 
ATOM     29  C20 UNL A   1      50.125  20.244   8.801  1.00  0.00    +0.000 C 
ATOM     30  C21 UNL A   1      51.033  21.302   8.915  1.00  0.00    +0.000 C 
ATOM     31  C22 UNL A   1      52.074  21.229   9.846  1.00  0.00    +0.000 C 
ATOM     32  C23 UNL A   1      52.191  20.116  10.693  1.00  0.00    +0.000 C 
BRANCH   29   27
ATOM     27  C19 UNL A   1      48.998  20.370   7.851  1.00  0.00    +0.000 C 
ATOM     28  O5  UNL A   1      48.444  21.456   7.709  1.00  0.00    +0.000 O 
BRANCH   27   26
ATOM     26  N4  UNL A   1      48.557  19.274   7.149  1.00  0.00    +0.000 N 
ATOM    118  H27 UNL A   1      49.149  18.489   7.184  1.00  0.00    +0.000 H 
BRANCH   26   25
ATOM     25  C18 UNL A   1      47.344  19.100   6.363  1.00  0.00    +0.000 C 
ATOM    116  H25 UNL A   1      46.500  19.331   6.981  1.00  0.00    +0.000 H 
ATOM    117  H26 UNL A   1      47.410  19.755   5.520  1.00  0.00    +0.000 H 
BRANCH   25   24
ATOM    114  H23 UNL A   1      48.069  17.429   5.285  1.00  0.00    +0.000 H 
ATOM    115  H24 UNL A   1      47.020  17.059   6.688  1.00  0.00    +0.000 H 
ATOM     24  C17 UNL A   1      47.184  17.679   5.831  1.00  0.00    +0.000 C 
BRANCH   24   23
ATOM    113  H22 UNL A   1      45.158  17.940   5.391  1.00  0.00    +0.000 H 
ATOM     23  C16 UNL A   1      45.985  17.458   4.912  1.00  0.00    +0.000 C 
ATOM    112  H21 UNL A   1      45.858  16.403   4.785  1.00  0.00    +0.000 H 
BRANCH   23   22
ATOM    110  H19 UNL A   1      47.031  18.595   3.464  1.00  0.00    +0.000 H 
ATOM     22  C15 UNL A   1      46.088  18.090   3.523  1.00  0.00    +0.000 C 
ATOM    111  H20 UNL A   1      45.977  17.281   2.833  1.00  0.00    +0.000 H 
BRANCH   22   21
ATOM    109  H18 UNL A   1      45.468  19.844   2.547  1.00  0.00    +0.000 H 
ATOM    108  H17 UNL A   1      44.579  19.488   4.057  1.00  0.00    +0.000 H 
ATOM     21  C14 UNL A   1      44.994  19.099   3.151  1.00  0.00    +0.000 C 
BRANCH   21   20
ATOM    106  H15 UNL A   1      43.976  18.856   1.300  1.00  0.00    +0.000 H 
ATOM    107  H16 UNL A   1      43.890  17.465   2.399  1.00  0.00    +0.000 H 
ATOM     20  C13 UNL A   1      43.850  18.531   2.312  1.00  0.00    +0.000 C 
BRANCH   20   19
ATOM    105  H14 UNL A   1      42.373  18.995   3.740  1.00  0.00    +0.000 H 
ATOM     19  N3  UNL A   1      42.541  18.952   2.771  1.00  0.00    +0.000 N 
BRANCH   19    2
ATOM      1  O1  UNL A   1      40.363  18.914   2.046  1.00  0.00    +0.000 O 
ATOM      2  C1  UNL A   1      41.523  19.294   1.909  1.00  0.00    +0.000 C 
BRANCH    2    3
ATOM      3  C2  UNL A   1      41.946  20.137   0.698  1.00  0.00    +0.000 C 
ATOM     92  H1  UNL A   1      42.364  19.481  -0.038  1.00  0.00    +0.000 H 
ATOM     93  H2  UNL A   1      42.649  20.859   1.057  1.00  0.00    +0.000 H 
BRANCH    3    4
ATOM      4  N1  UNL A   1      40.857  20.885   0.078  1.00  0.00    +0.000 N 
ATOM     94  H3  UNL A   1      40.663  21.763   0.479  1.00  0.00    +0.000 H 
BRANCH    4    5
ATOM      5  C3  UNL A   1      40.070  20.537  -0.982  1.00  0.00    +0.000 C 
ATOM      6  O2  UNL A   1      40.195  19.407  -1.453  1.00  0.00    +0.000 O 
BRANCH    5    7
ATOM     95  H4  UNL A   1      38.371  21.010  -2.198  1.00  0.00    +0.000 H 
ATOM      7  C4  UNL A   1      39.033  21.519  -1.529  1.00  0.00    +0.000 C 
ATOM     96  H5  UNL A   1      39.521  22.309  -2.061  1.00  0.00    +0.000 H 
BRANCH    7    8
ATOM     97  H6  UNL A   1      38.802  22.470   0.311  1.00  0.00    +0.000 H 
ATOM      8  N2  UNL A   1      38.281  22.061  -0.417  1.00  0.00    +0.000 N 
BRANCH    8    9
ATOM      9  C5  UNL A   1      36.929  22.065  -0.273  1.00  0.00    +0.000 C 
ATOM     10  O3  UNL A   1      36.254  22.934  -0.805  1.00  0.00    +0.000 O 
BRANCH    9   11
ATOM     11  O4  UNL A   1      36.458  21.033   0.464  1.00  0.00    +0.000 O 
BRANCH   11   12
ATOM     98  H7  UNL A   1      38.284  21.072   1.396  1.00  0.00    +0.000 H 
ATOM     99  H8  UNL A   1      37.586  19.472   1.137  1.00  0.00    +0.000 H 
ATOM     12  C6  UNL A   1      37.390  20.487   1.413  1.00  0.00    +0.000 C 
BRANCH   12   13
ATOM    100  H9  UNL A   1      36.641  18.389   2.947  1.00  0.00    +0.000 H 
ATOM    101  H10 UNL A   1      35.616  18.379   5.138  1.00  0.00    +0.000 H 
ATOM    102  H11 UNL A   1      35.254  20.468   6.316  1.00  0.00    +0.000 H 
ATOM    103  H12 UNL A   1      35.908  22.565   5.290  1.00  0.00    +0.000 H 
ATOM    104  H13 UNL A   1      36.877  22.586   3.067  1.00  0.00    +0.000 H 
ATOM     13  C7  UNL A   1      36.831  20.489   2.815  1.00  0.00    +0.000 C 
ATOM     14  C8  UNL A   1      36.472  19.281   3.435  1.00  0.00    +0.000 C 
ATOM     15  C9  UNL A   1      35.891  19.273   4.702  1.00  0.00    +0.000 C 
ATOM     16  C10 UNL A   1      35.682  20.471   5.377  1.00  0.00    +0.000 C 
ATOM     17  C11 UNL A   1      36.052  21.678   4.783  1.00  0.00    +0.000 C 
ATOM     18  C12 UNL A   1      36.617  21.689   3.505  1.00  0.00    +0.000 C 
ENDBRANCH   12   13
ENDBRANCH   11   12
ENDBRANCH    9   11
ENDBRANCH    8    9
ENDBRANCH    7    8
ENDBRANCH    5    7
ENDBRANCH    4    5
ENDBRANCH    3    4
ENDBRANCH    2    3
ENDBRANCH   19    2
ENDBRANCH   20   19
ENDBRANCH   21   20
ENDBRANCH   22   21
ENDBRANCH   23   22
ENDBRANCH   24   23
ENDBRANCH   25   24
ENDBRANCH   26   25
ENDBRANCH   27   26
ENDBRANCH   29   27
ENDBRANCH   33   32
BRANCH   37   38
ATOM     38  C28 UNL A   1      52.535  22.533  17.204  1.00  0.00    +0.000 C 
ATOM     39  C29 UNL A   1      52.374  23.924  17.115  1.00  0.00    +0.000 C 
ATOM     40  F1  UNL A   1      53.142  24.641  16.279  1.00  0.00    +0.000 F 
ATOM     41  C30 UNL A   1      51.446  24.591  17.910  1.00  0.00    +0.000 C 
ATOM     42  F2  UNL A   1      51.341  25.925  17.838  1.00  0.00    +0.000 F 
ATOM     43  C31 UNL A   1      50.638  23.879  18.782  1.00  0.00    +0.000 C 
ATOM     44  F3  UNL A   1      49.737  24.521  19.540  1.00  0.00    +0.000 F 
ATOM     45  C32 UNL A   1      50.766  22.500  18.873  1.00  0.00    +0.000 C 
ATOM     46  F4  UNL A   1      49.976  21.809  19.706  1.00  0.00    +0.000 F 
ATOM     47  C33 UNL A   1      51.713  21.834  18.101  1.00  0.00    +0.000 C 
ATOM     48  F5  UNL A   1      51.822  20.502  18.221  1.00  0.00    +0.000 F 
ENDBRANCH   37   38
BRANCH   54   55
ATOM     65  F10 UNL A   1      59.795  22.339  17.352  1.00  0.00    +0.000 F 
ATOM     55  C39 UNL A   1      59.277  20.033  17.641  1.00  0.00    +0.000 C 
ATOM     56  C40 UNL A   1      59.590  18.828  18.287  1.00  0.00    +0.000 C 
ATOM     57  F6  UNL A   1      58.870  17.723  18.039  1.00  0.00    +0.000 F 
ATOM     58  C41 UNL A   1      60.623  18.764  19.219  1.00  0.00    +0.000 C 
ATOM     59  F7  UNL A   1      60.877  17.613  19.856  1.00  0.00    +0.000 F 
ATOM     60  C42 UNL A   1      61.381  19.892  19.497  1.00  0.00    +0.000 C 
ATOM     61  F8  UNL A   1      62.380  19.826  20.388  1.00  0.00    +0.000 F 
ATOM     62  C43 UNL A   1      61.099  21.090  18.858  1.00  0.00    +0.000 C 
ATOM     63  F9  UNL A   1      61.839  22.177  19.117  1.00  0.00    +0.000 F 
ATOM     64  C44 UNL A   1      60.049  21.164  17.948  1.00  0.00    +0.000 C 
ENDBRANCH   54   55
BRANCH   69   70
ATOM     70  C48 UNL A   1      58.850  17.891  11.026  1.00  0.00    +0.000 C 
ATOM     71  C49 UNL A   1      58.994  16.497  11.011  1.00  0.00    +0.000 C 
ATOM     72  F11 UNL A   1      58.261  15.740  11.841  1.00  0.00    +0.000 F 
ATOM     73  C50 UNL A   1      59.921  15.877  10.177  1.00  0.00    +0.000 C 
ATOM     74  F12 UNL A   1      60.073  14.547  10.219  1.00  0.00    +0.000 F 
ATOM     75  C51 UNL A   1      60.703  16.637   9.320  1.00  0.00    +0.000 C 
ATOM     76  F13 UNL A   1      61.595  16.041   8.518  1.00  0.00    +0.000 F 
ATOM     77  C52 UNL A   1      60.563  18.016   9.301  1.00  0.00    +0.000 C 
ATOM     78  F14 UNL A   1      61.306  18.753   8.465  1.00  0.00    +0.000 F 
ATOM     79  C53 UNL A   1      59.655  18.639  10.156  1.00  0.00    +0.000 C 
ATOM     80  F15 UNL A   1      59.553  19.976  10.128  1.00  0.00    +0.000 F 
ENDBRANCH   69   70
TORSDOF 23
ENDMDL
MODEL 2
REMARK VINA RESULT:      -9.7     41.337     48.418
ROOT
ATOM    129  H38 UNL A   1      23.110  34.458  47.171  1.00  0.00    +0.000 H 
ATOM    130  H39 UNL A   1      22.810  36.698  48.373  1.00  0.00    +0.000 H 
ATOM     33  C24 UNL A   1      25.165  38.303  48.412  1.00  0.00    +0.000 C 
ATOM     34  C25 UNL A   1      24.952  37.000  47.690  1.00  0.00    +0.000 C 
ATOM     35  N5  UNL A   1      25.780  36.328  46.932  1.00  0.00    +0.000 N 
ATOM     36  C26 UNL A   1      25.100  35.175  46.559  1.00  0.00    +0.000 C 
ATOM     37  C27 UNL A   1      25.507  34.184  45.731  1.00  0.00    +0.000 C 
ATOM     49  C34 UNL A   1      26.779  34.160  45.057  1.00  0.00    +0.000 C 
ATOM     50  C35 UNL A   1      27.259  33.229  44.152  1.00  0.00    +0.000 C 
ATOM     51  C36 UNL A   1      28.558  33.598  43.792  1.00  0.00    +0.000 C 
ATOM     52  C37 UNL A   1      28.870  34.786  44.433  1.00  0.00    +0.000 C 
ATOM     53  N6  UNL A   1      27.771  35.116  45.211  1.00  0.00    +0.000 N 
ATOM     54  C38 UNL A   1      30.079  35.562  44.345  1.00  0.00    +0.000 C 
ATOM     66  C45 UNL A   1      30.309  36.720  45.012  1.00  0.00    +0.000 C 
ATOM     67  N7  UNL A   1      29.472  37.407  45.878  1.00  0.00    +0.000 N 
ATOM     68  C46 UNL A   1      30.146  38.461  46.271  1.00  0.00    +0.000 C 
ATOM     69  C47 UNL A   1      29.718  39.576  47.187  1.00  0.00    +0.000 C 
ATOM     81  C54 UNL A   1      28.472  39.569  47.699  1.00  0.00    +0.000 C 
ATOM     82  C55 UNL A   1      27.920  40.577  48.599  1.00  0.00    +0.000 C 
ATOM     83  C56 UNL A   1      26.678  40.213  48.956  1.00  0.00    +0.000 C 
ATOM     84  C57 UNL A   1      26.331  38.963  48.279  1.00  0.00    +0.000 C 
ATOM     85  N8  UNL A   1      27.450  38.665  47.539  1.00  0.00    +0.000 N 
ATOM     86  C58 UNL A   1      31.506  38.541  45.719  1.00  0.00    +0.000 C 
ATOM     87  C59 UNL A   1      31.538  37.479  44.926  1.00  0.00    +0.000 C 
ATOM     88  C60 UNL A   1      23.808  35.216  47.212  1.00  0.00    +0.000 C 
ATOM     89  C61 UNL A   1      23.642  36.355  47.868  1.00  0.00    +0.000 C 
ATOM    121  H30 UNL A   1      26.746  32.403  43.805  1.00  0.00    +0.000 H 
ATOM    122  H31 UNL A   1      29.180  33.075  43.155  1.00  0.00    +0.000 H 
ATOM    123  H32 UNL A   1      27.706  35.912  45.788  1.00  0.00    +0.000 H 
ATOM    124  H33 UNL A   1      28.407  41.432  48.910  1.00  0.00    +0.000 H 
ATOM    125  H34 UNL A   1      26.066  40.731  49.605  1.00  0.00    +0.000 H 
ATOM    126  H35 UNL A   1      27.513  37.878  46.950  1.00  0.00    +0.000 H 
ATOM    127  H36 UNL A   1      32.242  39.240  45.902  1.00  0.00    +0.000 H 
ATOM    128  H37 UNL A   1      32.338  37.226  44.325  1.00  0.00    +0.000 H 
ENDROOT
BRANCH   33   32
ATOM    131  H40 UNL A   1      23.150  39.975  47.849  1.00  0.00    +0.000 H 
ATOM    132  H41 UNL A   1      21.484  40.904  49.344  1.00  0.00    +0.000 H 
ATOM    119  H28 UNL A   1      23.040  38.616  52.511  1.00  0.00    +0.000 H 
ATOM    120  H29 UNL A   1      24.843  37.858  51.073  1.00  0.00    +0.000 H 
ATOM     90  C62 UNL A   1      23.141  39.700  48.844  1.00  0.00    +0.000 C 
ATOM     91  C63 UNL A   1      22.155  40.201  49.692  1.00  0.00    +0.000 C 
ATOM     29  C20 UNL A   1      22.077  39.752  51.012  1.00  0.00    +0.000 C 
ATOM     30  C21 UNL A   1      23.068  38.907  51.522  1.00  0.00    +0.000 C 
ATOM     31  C22 UNL A   1      24.098  38.460  50.689  1.00  0.00    +0.000 C 
ATOM     32  C23 UNL A   1      24.122  38.823  49.333  1.00  0.00    +0.000 C 
BRANCH   29   27
ATOM     27  C19 UNL A   1      20.965  40.164  51.897  1.00  0.00    +0.000 C 
ATOM     28  O5  UNL A   1      21.132  41.086  52.690  1.00  0.00    +0.000 O 
BRANCH   27   26
ATOM     26  N4  UNL A   1      19.761  39.504  51.851  1.00  0.00    +0.000 N 
ATOM    118  H27 UNL A   1      19.823  38.528  51.741  1.00  0.00    +0.000 H 
BRANCH   26   25
ATOM     25  C18 UNL A   1      18.407  40.032  51.942  1.00  0.00    +0.000 C 
ATOM    116  H25 UNL A   1      17.850  39.428  52.628  1.00  0.00    +0.000 H 
ATOM    117  H26 UNL A   1      18.480  41.047  52.274  1.00  0.00    +0.000 H 
BRANCH   25   24
ATOM    114  H23 UNL A   1      16.951  40.816  50.622  1.00  0.00    +0.000 H 
ATOM    115  H24 UNL A   1      18.441  40.184  49.856  1.00  0.00    +0.000 H 
ATOM     24  C17 UNL A   1      17.684  40.038  50.599  1.00  0.00    +0.000 C 
BRANCH   24   23
ATOM    113  H22 UNL A   1      17.295  38.016  50.960  1.00  0.00    +0.000 H 
ATOM     23  C16 UNL A   1      16.978  38.734  50.233  1.00  0.00    +0.000 C 
ATOM    112  H21 UNL A   1      17.251  38.484  49.228  1.00  0.00    +0.000 H 
BRANCH   23   22
ATOM    110  H19 UNL A   1      15.178  38.723  51.348  1.00  0.00    +0.000 H 
ATOM     22  C15 UNL A   1      15.451  38.762  50.313  1.00  0.00    +0.000 C 
ATOM    111  H20 UNL A   1      15.156  39.660  49.813  1.00  0.00    +0.000 H 
BRANCH   22   21
ATOM    109  H18 UNL A   1      14.099  38.096  48.849  1.00  0.00    +0.000 H 
ATOM    108  H17 UNL A   1      14.150  37.081  50.320  1.00  0.00    +0.000 H 
ATOM     21  C14 UNL A   1      14.711  37.628  49.592  1.00  0.00    +0.000 C 
BRANCH   21   20
ATOM    106  H15 UNL A   1      16.600  37.047  48.806  1.00  0.00    +0.000 H 
ATOM    107  H16 UNL A   1      15.576  35.715  49.380  1.00  0.00    +0.000 H 
ATOM     20  C13 UNL A   1      15.610  36.642  48.847  1.00  0.00    +0.000 C 
BRANCH   20   19
ATOM    105  H14 UNL A   1      14.202  36.262  47.326  1.00  0.00    +0.000 H 
ATOM     19  N3  UNL A   1      15.165  36.377  47.492  1.00  0.00    +0.000 N 
BRANCH   19    2
ATOM      1  O1  UNL A   1      16.832  37.159  46.120  1.00  0.00    +0.000 O 
ATOM      2  C1  UNL A   1      16.034  36.277  46.428  1.00  0.00    +0.000 C 
BRANCH    2    3
ATOM      3  C2  UNL A   1      15.893  35.002  45.586  1.00  0.00    +0.000 C 
ATOM     92  H1  UNL A   1      14.858  34.873  45.343  1.00  0.00    +0.000 H 
ATOM     93  H2  UNL A   1      16.284  34.199  46.175  1.00  0.00    +0.000 H 
BRANCH    3    4
ATOM      4  N1  UNL A   1      16.655  35.017  44.342  1.00  0.00    +0.000 N 
ATOM     94  H3  UNL A   1      17.264  35.782  44.227  1.00  0.00    +0.000 H 
BRANCH    4    5
ATOM      5  C3  UNL A   1      16.642  34.118  43.314  1.00  0.00    +0.000 C 
ATOM      6  O2  UNL A   1      15.869  34.319  42.377  1.00  0.00    +0.000 O 
BRANCH    5    7
ATOM     95  H4  UNL A   1      18.565  33.234  42.983  1.00  0.00    +0.000 H 
ATOM      7  C4  UNL A   1      17.597  32.925  43.319  1.00  0.00    +0.000 C 
ATOM     96  H5  UNL A   1      17.233  32.161  42.664  1.00  0.00    +0.000 H 
BRANCH    7    8
ATOM     97  H6  UNL A   1      16.845  32.322  45.167  1.00  0.00    +0.000 H 
ATOM      8  N2  UNL A   1      17.690  32.415  44.672  1.00  0.00    +0.000 N 
BRANCH    8    9
ATOM      9  C5  UNL A   1      18.823  32.052  45.328  1.00  0.00    +0.000 C 
ATOM     10  O3  UNL A   1      19.349  30.972  45.100  1.00  0.00    +0.000 O 
BRANCH    9   11
ATOM     11  O4  UNL A   1      19.277  32.990  46.190  1.00  0.00    +0.000 O 
BRANCH   11   12
ATOM     98  H7  UNL A   1      19.348  34.375  44.680  1.00  0.00    +0.000 H 
ATOM     99  H8  UNL A   1      20.904  33.902  45.365  1.00  0.00    +0.000 H 
ATOM     12  C6  UNL A   1      19.883  34.139  45.576  1.00  0.00    +0.000 C 
BRANCH   12   13
ATOM    100  H9  UNL A   1      20.692  36.670  45.070  1.00  0.00    +0.000 H 
ATOM    101  H10 UNL A   1      20.797  38.574  46.558  1.00  0.00    +0.000 H 
ATOM    102  H11 UNL A   1      19.980  38.379  48.834  1.00  0.00    +0.000 H 
ATOM    103  H12 UNL A   1      19.071  36.272  49.618  1.00  0.00    +0.000 H 
ATOM    104  H13 UNL A   1      19.022  34.343  48.150  1.00  0.00    +0.000 H 
ATOM     13  C7  UNL A   1      19.862  35.342  46.488  1.00  0.00    +0.000 C 
ATOM     14  C8  UNL A   1      20.360  36.576  46.042  1.00  0.00    +0.000 C 
ATOM     15  C9  UNL A   1      20.413  37.677  46.895  1.00  0.00    +0.000 C 
ATOM     16  C10 UNL A   1      19.946  37.565  48.201  1.00  0.00    +0.000 C 
ATOM     17  C11 UNL A   1      19.429  36.350  48.653  1.00  0.00    +0.000 C 
ATOM     18  C12 UNL A   1      19.394  35.241  47.804  1.00  0.00    +0.000 C 
ENDBRANCH   12   13
ENDBRANCH   11   12
ENDBRANCH    9   11
ENDBRANCH    8    9
ENDBRANCH    7    8
ENDBRANCH    5    7
ENDBRANCH    4    5
ENDBRANCH    3    4
ENDBRANCH    2    3
ENDBRANCH   19    2
ENDBRANCH   20   19
ENDBRANCH   21   20
ENDBRANCH   22   21
ENDBRANCH   23   22
ENDBRANCH   24   23
ENDBRANCH   25   24
ENDBRANCH   26   25
ENDBRANCH   27   26
ENDBRANCH   29   27
ENDBRANCH   33   32
BRANCH   37   38
ATOM     38  C28 UNL A   1      24.566  33.038  45.502  1.00  0.00    +0.000 C 
ATOM     39  C29 UNL A   1      23.541  33.109  44.546  1.00  0.00    +0.000 C 
ATOM     40  F1  UNL A   1      23.347  34.239  43.847  1.00  0.00    +0.000 F 
ATOM     41  C30 UNL A   1      22.689  32.030  44.326  1.00  0.00    +0.000 C 
ATOM     42  F2  UNL A   1      21.690  32.137  43.439  1.00  0.00    +0.000 F 
ATOM     43  C31 UNL A   1      22.865  30.849  45.031  1.00  0.00    +0.000 C 
ATOM     44  F3  UNL A   1      22.050  29.808  44.812  1.00  0.00    +0.000 F 
ATOM     45  C32 UNL A   1      23.883  30.750  45.968  1.00  0.00    +0.000 C 
ATOM     46  F4  UNL A   1      24.063  29.604  46.640  1.00  0.00    +0.000 F 
ATOM     47  C33 UNL A   1      24.718  31.837  46.211  1.00  0.00    +0.000 C 
ATOM     48  F5  UNL A   1      25.686  31.713  47.132  1.00  0.00    +0.000 F 
ENDBRANCH   37   38
BRANCH   54   55
ATOM     65  F10 UNL A   1      32.007  33.629  45.123  1.00  0.00    +0.000 F 
ATOM     55  C39 UNL A   1      31.159  35.068  43.427  1.00  0.00    +0.000 C 
ATOM     56  C40 UNL A   1      31.299  35.558  42.121  1.00  0.00    +0.000 C 
ATOM     57  F6  UNL A   1      30.420  36.450  41.637  1.00  0.00    +0.000 F 
ATOM     58  C41 UNL A   1      32.322  35.105  41.293  1.00  0.00    +0.000 C 
ATOM     59  F7  UNL A   1      32.411  35.555  40.034  1.00  0.00    +0.000 F 
ATOM     60  C42 UNL A   1      33.243  34.180  41.765  1.00  0.00    +0.000 C 
ATOM     61  F8  UNL A   1      34.232  33.752  40.969  1.00  0.00    +0.000 F 
ATOM     62  C43 UNL A   1      33.132  33.695  43.060  1.00  0.00    +0.000 C 
ATOM     63  F9  UNL A   1      34.028  32.811  43.521  1.00  0.00    +0.000 F 
ATOM     64  C44 UNL A   1      32.093  34.124  43.879  1.00  0.00    +0.000 C 
ENDBRANCH   54   55
BRANCH   69   70
ATOM     70  C48 UNL A   1      30.649  40.690  47.509  1.00  0.00    +0.000 C 
ATOM     71  C49 UNL A   1      31.544  40.589  48.583  1.00  0.00    +0.000 C 
ATOM     72  F11 UNL A   1      31.562  39.480  49.337  1.00  0.00    +0.000 F 
ATOM     73  C50 UNL A   1      32.392  41.643  48.916  1.00  0.00    +0.000 C 
ATOM     74  F12 UNL A   1      33.202  41.539  49.977  1.00  0.00    +0.000 F 
ATOM     75  C51 UNL A   1      32.383  42.808  48.163  1.00  0.00    +0.000 C 
ATOM     76  F13 UNL A   1      33.197  43.821  48.482  1.00  0.00    +0.000 F 
ATOM     77  C52 UNL A   1      31.521  42.922  47.082  1.00  0.00    +0.000 C 
ATOM     78  F14 UNL A   1      31.518  44.040  46.343  1.00  0.00    +0.000 F 
ATOM     79  C53 UNL A   1      30.652  41.879  46.766  1.00  0.00    +0.000 C 
ATOM     80  F15 UNL A   1      29.818  42.024  45.726  1.00  0.00    +0.000 F 
ENDBRANCH   69   70
TORSDOF 23
ENDMDL
MODEL 3
REMARK VINA RESULT:      -9.7      1.594      2.322
ROOT
ATOM    129  H38 UNL A   1      51.704  21.889  13.311  1.00  0.00    +0.000 H 
ATOM    130  H39 UNL A   1      51.257  20.296  11.357  1.00  0.00    +0.000 H 
ATOM     33  C24 UNL A   1      53.512  18.712  10.630  1.00  0.00    +0.000 C 
ATOM     34  C25 UNL A   1      53.386  19.649  11.799  1.00  0.00    +0.000 C 
ATOM     35  N5  UNL A   1      54.261  19.938  12.728  1.00  0.00    +0.000 N 
ATOM     36  C26 UNL A   1      53.656  20.894  13.535  1.00  0.00    +0.000 C 
ATOM     37  C27 UNL A   1      54.131  21.471  14.663  1.00  0.00    +0.000 C 
ATOM     49  C34 UNL A   1      55.410  21.172  15.252  1.00  0.00    +0.000 C 
ATOM     50  C35 UNL A   1      55.956  21.661  16.426  1.00  0.00    +0.000 C 
ATOM     51  C36 UNL A   1      57.235  21.118  16.574  1.00  0.00    +0.000 C 
ATOM     52  C37 UNL A   1      57.468  20.252  15.518  1.00  0.00    +0.000 C 
ATOM     53  N6  UNL A   1      56.342  20.299  14.711  1.00  0.00    +0.000 N 
ATOM     54  C38 UNL A   1      58.630  19.441  15.263  1.00  0.00    +0.000 C 
ATOM     66  C45 UNL A   1      58.783  18.617  14.198  1.00  0.00    +0.000 C 
ATOM     67  N7  UNL A   1      57.896  18.355  13.164  1.00  0.00    +0.000 N 
ATOM     68  C46 UNL A   1      58.501  17.499  12.377  1.00  0.00    +0.000 C 
ATOM     69  C47 UNL A   1      57.997  16.842  11.120  1.00  0.00    +0.000 C 
ATOM     81  C54 UNL A   1      56.747  17.106  10.693  1.00  0.00    +0.000 C 
ATOM     82  C55 UNL A   1      56.125  16.548   9.496  1.00  0.00    +0.000 C 
ATOM     83  C56 UNL A   1      54.903  17.082   9.347  1.00  0.00    +0.000 C 
ATOM     84  C57 UNL A   1      54.639  17.994  10.461  1.00  0.00    +0.000 C 
ATOM     85  N8  UNL A   1      55.782  17.930  11.219  1.00  0.00    +0.000 N 
ATOM     86  C58 UNL A   1      59.861  17.146  12.810  1.00  0.00    +0.000 C 
ATOM     87  C59 UNL A   1      59.966  17.821  13.946  1.00  0.00    +0.000 C 
ATOM     88  C60 UNL A   1      52.356  21.170  12.961  1.00  0.00    +0.000 C 
ATOM     89  C61 UNL A   1      52.114  20.378  11.925  1.00  0.00    +0.000 C 
ATOM    121  H30 UNL A   1      55.498  22.316  17.079  1.00  0.00    +0.000 H 
ATOM    122  H31 UNL A   1      57.895  21.326  17.340  1.00  0.00    +0.000 H 
ATOM    123  H32 UNL A   1      56.223  19.789  13.877  1.00  0.00    +0.000 H 
ATOM    124  H33 UNL A   1      56.556  15.853   8.867  1.00  0.00    +0.000 H 
ATOM    125  H34 UNL A   1      54.253  16.882   8.571  1.00  0.00    +0.000 H 
ATOM    126  H35 UNL A   1      55.900  18.428  12.061  1.00  0.00    +0.000 H 
ATOM    127  H36 UNL A   1      60.552  16.535  12.350  1.00  0.00    +0.000 H 
ATOM    128  H37 UNL A   1      60.787  17.786  14.570  1.00  0.00    +0.000 H 
ENDROOT
BRANCH   33   32
ATOM    131  H40 UNL A   1      53.020  20.401   8.610  1.00  0.00    +0.000 H 
ATOM    132  H41 UNL A   1      51.217  20.349   6.991  1.00  0.00    +0.000 H 
ATOM    119  H28 UNL A   1      49.850  16.721   8.620  1.00  0.00    +0.000 H 
ATOM    120  H29 UNL A   1      51.515  16.887  10.378  1.00  0.00    +0.000 H 
ATOM     90  C62 UNL A   1      52.335  19.628   8.626  1.00  0.00    +0.000 C 
ATOM     91  C63 UNL A   1      51.326  19.577   7.667  1.00  0.00    +0.000 C 
ATOM     29  C20 UNL A   1      50.462  18.481   7.622  1.00  0.00    +0.000 C 
ATOM     30  C21 UNL A   1      50.520  17.504   8.622  1.00  0.00    +0.000 C 
ATOM     31  C22 UNL A   1      51.489  17.593   9.626  1.00  0.00    +0.000 C 
ATOM     32  C23 UNL A   1      52.429  18.636   9.616  1.00  0.00    +0.000 C 
BRANCH   29   27
ATOM     27  C19 UNL A   1      49.466  18.333   6.538  1.00  0.00    +0.000 C 
ATOM     28  O5  UNL A   1      49.762  17.704   5.526  1.00  0.00    +0.000 O 
BRANCH   27   26
ATOM     26  N4  UNL A   1      48.227  18.916   6.650  1.00  0.00    +0.000 N 
ATOM    118  H27 UNL A   1      48.183  19.692   7.253  1.00  0.00    +0.000 H 
BRANCH   26   25
ATOM     25  C18 UNL A   1      46.971  18.558   6.009  1.00  0.00    +0.000 C 
ATOM    116  H25 UNL A   1      46.970  17.504   5.823  1.00  0.00    +0.000 H 
ATOM    117  H26 UNL A   1      46.180  18.845   6.669  1.00  0.00    +0.000 H 
BRANCH   25   24
ATOM    114  H23 UNL A   1      45.882  19.900   4.787  1.00  0.00    +0.000 H 
ATOM    115  H24 UNL A   1      47.650  19.843   4.505  1.00  0.00    +0.000 H 
ATOM     24  C17 UNL A   1      46.753  19.287   4.687  1.00  0.00    +0.000 C 
BRANCH   24   23
ATOM    113  H22 UNL A   1      46.638  17.383   3.833  1.00  0.00    +0.000 H 
ATOM     23  C16 UNL A   1      46.560  18.386   3.470  1.00  0.00    +0.000 C 
ATOM    112  H21 UNL A   1      47.305  18.645   2.746  1.00  0.00    +0.000 H 
BRANCH   23   22
ATOM    110  H19 UNL A   1      45.356  18.496   1.731  1.00  0.00    +0.000 H 
ATOM     22  C15 UNL A   1      45.193  18.476   2.789  1.00  0.00    +0.000 C 
ATOM    111  H20 UNL A   1      44.645  17.625   3.134  1.00  0.00    +0.000 H 
BRANCH   22   21
ATOM    109  H18 UNL A   1      44.394  20.362   2.318  1.00  0.00    +0.000 H 
ATOM    108  H17 UNL A   1      44.711  20.110   4.060  1.00  0.00    +0.000 H 
ATOM     21  C14 UNL A   1      44.331  19.693   3.151  1.00  0.00    +0.000 C 
BRANCH   21   20
ATOM    106  H15 UNL A   1      42.738  18.746   4.194  1.00  0.00    +0.000 H 
ATOM    107  H16 UNL A   1      42.350  20.333   3.499  1.00  0.00    +0.000 H 
ATOM     20  C13 UNL A   1      42.845  19.396   3.350  1.00  0.00    +0.000 C 
BRANCH   20   19
ATOM    105  H14 UNL A   1      42.008  17.804   2.253  1.00  0.00    +0.000 H 
ATOM     19  N3  UNL A   1      42.232  18.761   2.200  1.00  0.00    +0.000 N 
BRANCH   19    2
ATOM      1  O1  UNL A   1      42.785  20.095   0.414  1.00  0.00    +0.000 O 
ATOM      2  C1  UNL A   1      41.951  19.441   1.035  1.00  0.00    +0.000 C 
BRANCH    2    3
ATOM      3  C2  UNL A   1      40.484  19.392   0.586  1.00  0.00    +0.000 C 
ATOM     92  H1  UNL A   1      39.889  19.877   1.333  1.00  0.00    +0.000 H 
ATOM     93  H2  UNL A   1      40.234  18.359   0.464  1.00  0.00    +0.000 H 
BRANCH    3    4
ATOM      4  N1  UNL A   1      40.226  20.040  -0.695  1.00  0.00    +0.000 N 
ATOM     94  H3  UNL A   1      40.424  19.498  -1.492  1.00  0.00    +0.000 H 
BRANCH    4    5
ATOM      5  C3  UNL A   1      39.748  21.295  -0.943  1.00  0.00    +0.000 C 
ATOM      6  O2  UNL A   1      40.301  22.247  -0.392  1.00  0.00    +0.000 O 
BRANCH    5    7
ATOM     95  H4  UNL A   1      38.340  20.572  -2.386  1.00  0.00    +0.000 H 
ATOM      7  C4  UNL A   1      38.586  21.501  -1.915  1.00  0.00    +0.000 C 
ATOM     96  H5  UNL A   1      38.860  22.208  -2.670  1.00  0.00    +0.000 H 
BRANCH    7    8
ATOM     97  H6  UNL A   1      37.157  22.911  -1.355  1.00  0.00    +0.000 H 
ATOM      8  N2  UNL A   1      37.444  21.988  -1.170  1.00  0.00    +0.000 N 
BRANCH    8    9
ATOM      9  C5  UNL A   1      36.726  21.304  -0.240  1.00  0.00    +0.000 C 
ATOM     10  O3  UNL A   1      36.124  20.286  -0.552  1.00  0.00    +0.000 O 
BRANCH    9   11
ATOM     11  O4  UNL A   1      36.783  21.845   0.997  1.00  0.00    +0.000 O 
BRANCH   11   12
ATOM     98  H7  UNL A   1      38.450  21.776   2.190  1.00  0.00    +0.000 H 
ATOM     99  H8  UNL A   1      37.960  20.244   1.462  1.00  0.00    +0.000 H 
ATOM     12  C6  UNL A   1      37.626  21.147   1.930  1.00  0.00    +0.000 C 
BRANCH   12   13
ATOM    100  H9  UNL A   1      36.489  22.761   3.778  1.00  0.00    +0.000 H 
ATOM    101  H10 UNL A   1      35.417  22.184   5.868  1.00  0.00    +0.000 H 
ATOM    102  H11 UNL A   1      35.133  19.855   6.482  1.00  0.00    +0.000 H 
ATOM    103  H12 UNL A   1      35.935  18.107   5.004  1.00  0.00    +0.000 H 
ATOM    104  H13 UNL A   1      37.067  18.681   2.938  1.00  0.00    +0.000 H 
ATOM     13  C7  UNL A   1      36.882  20.771   3.189  1.00  0.00    +0.000 C 
ATOM     14  C8  UNL A   1      36.388  21.770   4.042  1.00  0.00    +0.000 C 
ATOM     15  C9  UNL A   1      35.761  21.439   5.243  1.00  0.00    +0.000 C 
ATOM     16  C10 UNL A   1      35.599  20.103   5.595  1.00  0.00    +0.000 C 
ATOM     17  C11 UNL A   1      36.067  19.098   4.747  1.00  0.00    +0.000 C 
ATOM     18  C12 UNL A   1      36.713  19.429   3.554  1.00  0.00    +0.000 C 
ENDBRANCH   12   13
ENDBRANCH   11   12
ENDBRANCH    9   11
ENDBRANCH    8    9
ENDBRANCH    7    8
ENDBRANCH    5    7
ENDBRANCH    4    5
ENDBRANCH    3    4
ENDBRANCH    2    3
ENDBRANCH   19    2
ENDBRANCH   20   19
ENDBRANCH   21   20
ENDBRANCH   22   21
ENDBRANCH   23   22
ENDBRANCH   24   23
ENDBRANCH   25   24
ENDBRANCH   26   25
ENDBRANCH   27   26
ENDBRANCH   29   27
ENDBRANCH   33   32
BRANCH   37   38
ATOM     38  C28 UNL A   1      53.262  22.488  15.344  1.00  0.00    +0.000 C 
ATOM     39  C29 UNL A   1      52.425  22.140  16.415  1.00  0.00    +0.000 C 
ATOM     40  F1  UNL A   1      52.344  20.863  16.821  1.00  0.00    +0.000 F 
ATOM     41  C30 UNL A   1      51.641  23.098  17.054  1.00  0.00    +0.000 C 
ATOM     42  F2  UNL A   1      50.817  22.733  18.045  1.00  0.00    +0.000 F 
ATOM     43  C31 UNL A   1      51.704  24.425  16.657  1.00  0.00    +0.000 C 
ATOM     44  F3  UNL A   1      50.956  25.347  17.279  1.00  0.00    +0.000 F 
ATOM     45  C32 UNL A   1      52.538  24.795  15.613  1.00  0.00    +0.000 C 
ATOM     46  F4  UNL A   1      52.610  26.080  15.239  1.00  0.00    +0.000 F 
ATOM     47  C33 UNL A   1      53.301  23.835  14.954  1.00  0.00    +0.000 C 
ATOM     48  F5  UNL A   1      54.089  24.223  13.940  1.00  0.00    +0.000 F 
ENDBRANCH   37   38
BRANCH   54   55
ATOM     65  F10 UNL A   1      60.886  21.141  14.975  1.00  0.00    +0.000 F 
ATOM     55  C39 UNL A   1      59.749  19.492  16.262  1.00  0.00    +0.000 C 
ATOM     56  C40 UNL A   1      59.761  18.673  17.400  1.00  0.00    +0.000 C 
ATOM     57  F6  UNL A   1      58.727  17.855  17.653  1.00  0.00    +0.000 F 
ATOM     58  C41 UNL A   1      60.820  18.718  18.303  1.00  0.00    +0.000 C 
ATOM     59  F7  UNL A   1      60.790  17.957  19.405  1.00  0.00    +0.000 F 
ATOM     60  C42 UNL A   1      61.900  19.556  18.068  1.00  0.00    +0.000 C 
ATOM     61  F8  UNL A   1      62.923  19.591  18.934  1.00  0.00    +0.000 F 
ATOM     62  C43 UNL A   1      61.916  20.363  16.940  1.00  0.00    +0.000 C 
ATOM     63  F9  UNL A   1      62.965  21.164  16.707  1.00  0.00    +0.000 F 
ATOM     64  C44 UNL A   1      60.846  20.342  16.052  1.00  0.00    +0.000 C 
ENDBRANCH   54   55
BRANCH   69   70
ATOM     70  C48 UNL A   1      58.856  15.891  10.366  1.00  0.00    +0.000 C 
ATOM     71  C49 UNL A   1      58.949  14.546  10.754  1.00  0.00    +0.000 C 
ATOM     72  F11 UNL A   1      58.262  14.108  11.820  1.00  0.00    +0.000 F 
ATOM     73  C50 UNL A   1      59.781  13.657  10.077  1.00  0.00    +0.000 C 
ATOM     74  F12 UNL A   1      59.889  12.391  10.499  1.00  0.00    +0.000 F 
ATOM     75  C51 UNL A   1      60.514  14.088   8.981  1.00  0.00    +0.000 C 
ATOM     76  F13 UNL A   1      61.314  13.234   8.331  1.00  0.00    +0.000 F 
ATOM     77  C52 UNL A   1      60.421  15.408   8.566  1.00  0.00    +0.000 C 
ATOM     78  F14 UNL A   1      61.117  15.824   7.500  1.00  0.00    +0.000 F 
ATOM     79  C53 UNL A   1      59.610  16.304   9.260  1.00  0.00    +0.000 C 
ATOM     80  F15 UNL A   1      59.553  17.579   8.846  1.00  0.00    +0.000 F 
ENDBRANCH   69   70
TORSDOF 23
ENDMDL
MODEL 4
REMARK VINA RESULT:      -9.6     26.029     33.944
ROOT
ATOM    129  H38 UNL A   1      24.927  16.515   5.156  1.00  0.00    +0.000 H 
ATOM    130  H39 UNL A   1      23.106  14.718   5.055  1.00  0.00    +0.000 H 
ATOM     33  C24 UNL A   1      20.598  15.679   4.102  1.00  0.00    +0.000 C 
ATOM     34  C25 UNL A   1      21.903  16.425   4.168  1.00  0.00    +0.000 C 
ATOM     35  N5  UNL A   1      22.176  17.653   3.808  1.00  0.00    +0.000 N 
ATOM     36  C26 UNL A   1      23.513  17.853   4.128  1.00  0.00    +0.000 C 
ATOM     37  C27 UNL A   1      24.281  18.944   3.901  1.00  0.00    +0.000 C 
ATOM     49  C34 UNL A   1      23.820  20.142   3.248  1.00  0.00    +0.000 C 
ATOM     50  C35 UNL A   1      24.539  21.278   2.920  1.00  0.00    +0.000 C 
ATOM     51  C36 UNL A   1      23.663  22.196   2.333  1.00  0.00    +0.000 C 
ATOM     52  C37 UNL A   1      22.409  21.614   2.250  1.00  0.00    +0.000 C 
ATOM     53  N6  UNL A   1      22.518  20.355   2.822  1.00  0.00    +0.000 N 
ATOM     54  C38 UNL A   1      21.201  22.163   1.693  1.00  0.00    +0.000 C 
ATOM     66  C45 UNL A   1      20.005  21.526   1.654  1.00  0.00    +0.000 C 
ATOM     67  N7  UNL A   1      19.680  20.253   2.099  1.00  0.00    +0.000 N 
ATOM     68  C46 UNL A   1      18.403  20.097   1.847  1.00  0.00    +0.000 C 
ATOM     69  C47 UNL A   1      17.525  18.898   2.088  1.00  0.00    +0.000 C 
ATOM     81  C54 UNL A   1      18.064  17.782   2.615  1.00  0.00    +0.000 C 
ATOM     82  C55 UNL A   1      17.340  16.547   2.905  1.00  0.00    +0.000 C 
ATOM     83  C56 UNL A   1      18.179  15.673   3.483  1.00  0.00    +0.000 C 
ATOM     84  C57 UNL A   1      19.512  16.271   3.569  1.00  0.00    +0.000 C 
ATOM     85  N8  UNL A   1      19.352  17.517   3.013  1.00  0.00    +0.000 N 
ATOM     86  C58 UNL A   1      17.764  21.275   1.241  1.00  0.00    +0.000 C 
ATOM     87  C59 UNL A   1      18.793  22.099   1.106  1.00  0.00    +0.000 C 
ATOM     88  C60 UNL A   1      23.985  16.636   4.753  1.00  0.00    +0.000 C 
ATOM     89  C61 UNL A   1      23.047  15.699   4.742  1.00  0.00    +0.000 C 
ATOM    121  H30 UNL A   1      25.548  21.423   3.082  1.00  0.00    +0.000 H 
ATOM    122  H31 UNL A   1      23.910  23.146   2.014  1.00  0.00    +0.000 H 
ATOM    123  H32 UNL A   1      21.780  19.710   2.912  1.00  0.00    +0.000 H 
ATOM    124  H33 UNL A   1      16.344  16.376   2.699  1.00  0.00    +0.000 H 
ATOM    125  H34 UNL A   1      17.925  14.729   3.814  1.00  0.00    +0.000 H 
ATOM    126  H35 UNL A   1      20.091  18.159   2.909  1.00  0.00    +0.000 H 
ATOM    127  H36 UNL A   1      16.775  21.421   0.988  1.00  0.00    +0.000 H 
ATOM    128  H37 UNL A   1      18.738  23.032   0.667  1.00  0.00    +0.000 H 
ENDROOT
BRANCH   33   32
ATOM    131  H40 UNL A   1      19.584  14.998   6.485  1.00  0.00    +0.000 H 
ATOM    132  H41 UNL A   1      19.459  12.807   7.512  1.00  0.00    +0.000 H 
ATOM    119  H28 UNL A   1      21.066  11.076   4.033  1.00  0.00    +0.000 H 
ATOM    120  H29 UNL A   1      21.402  13.288   3.091  1.00  0.00    +0.000 H 
ATOM     90  C62 UNL A   1      19.919  14.168   5.970  1.00  0.00    +0.000 C 
ATOM     91  C63 UNL A   1      19.804  12.904   6.545  1.00  0.00    +0.000 C 
ATOM     29  C20 UNL A   1      20.159  11.770   5.811  1.00  0.00    +0.000 C 
ATOM     30  C21 UNL A   1      20.757  11.910   4.554  1.00  0.00    +0.000 C 
ATOM     31  C22 UNL A   1      20.936  13.184   4.007  1.00  0.00    +0.000 C 
ATOM     32  C23 UNL A   1      20.485  14.322   4.694  1.00  0.00    +0.000 C 
BRANCH   29   27
ATOM     27  C19 UNL A   1      19.926  10.409   6.343  1.00  0.00    +0.000 C 
ATOM     28  O5  UNL A   1      18.781  10.045   6.596  1.00  0.00    +0.000 O 
BRANCH   27   26
ATOM     26  N4  UNL A   1      20.985   9.565   6.576  1.00  0.00    +0.000 N 
ATOM    118  H27 UNL A   1      21.129   8.875   5.890  1.00  0.00    +0.000 H 
BRANCH   26   25
ATOM     25  C18 UNL A   1      21.928   9.542   7.685  1.00  0.00    +0.000 C 
ATOM    116  H25 UNL A   1      21.391   9.721   8.594  1.00  0.00    +0.000 H 
ATOM    117  H26 UNL A   1      22.400   8.582   7.685  1.00  0.00    +0.000 H 
BRANCH   25   24
ATOM    114  H23 UNL A   1      23.939  10.165   7.902  1.00  0.00    +0.000 H 
ATOM    115  H24 UNL A   1      23.049  10.866   6.516  1.00  0.00    +0.000 H 
ATOM     24  C17 UNL A   1      23.024  10.594   7.551  1.00  0.00    +0.000 C 
BRANCH   24   23
ATOM    113  H22 UNL A   1      23.329  11.790   9.237  1.00  0.00    +0.000 H 
ATOM     23  C16 UNL A   1      22.783  11.889   8.323  1.00  0.00    +0.000 C 
ATOM    112  H21 UNL A   1      21.726  12.000   8.458  1.00  0.00    +0.000 H 
BRANCH   23   22
ATOM    110  H19 UNL A   1      24.377  13.128   7.684  1.00  0.00    +0.000 H 
ATOM     22  C15 UNL A   1      23.307  13.164   7.660  1.00  0.00    +0.000 C 
ATOM    111  H20 UNL A   1      22.888  13.167   6.676  1.00  0.00    +0.000 H 
BRANCH   22   21
ATOM    109  H18 UNL A   1      22.213  14.234   9.100  1.00  0.00    +0.000 H 
ATOM    108  H17 UNL A   1      22.402  15.083   7.537  1.00  0.00    +0.000 H 
ATOM     21  C14 UNL A   1      22.871  14.490   8.295  1.00  0.00    +0.000 C 
BRANCH   21   20
ATOM    106  H15 UNL A   1      23.983  15.176   9.972  1.00  0.00    +0.000 H 
ATOM    107  H16 UNL A   1      24.917  14.973   8.477  1.00  0.00    +0.000 H 
ATOM     20  C13 UNL A   1      24.001  15.314   8.911  1.00  0.00    +0.000 C 
BRANCH   20   19
ATOM    105  H14 UNL A   1      23.037  17.080   8.287  1.00  0.00    +0.000 H 
ATOM     19  N3  UNL A   1      23.891  16.733   8.630  1.00  0.00    +0.000 N 
BRANCH   19    2
ATOM      1  O1  UNL A   1      26.110  17.325   8.621  1.00  0.00    +0.000 O 
ATOM      2  C1  UNL A   1      24.932  17.613   8.821  1.00  0.00    +0.000 C 
BRANCH    2    3
ATOM      3  C2  UNL A   1      24.534  18.986   9.383  1.00  0.00    +0.000 C 
ATOM     92  H1  UNL A   1      23.551  18.904   9.800  1.00  0.00    +0.000 H 
ATOM     93  H2  UNL A   1      24.583  19.677   8.569  1.00  0.00    +0.000 H 
BRANCH    3    4
ATOM      4  N1  UNL A   1      25.429  19.493  10.418  1.00  0.00    +0.000 N 
ATOM     94  H3  UNL A   1      25.752  18.825  11.064  1.00  0.00    +0.000 H 
BRANCH    4    5
ATOM      5  C3  UNL A   1      25.880  20.767  10.616  1.00  0.00    +0.000 C 
ATOM      6  O2  UNL A   1      25.901  21.532   9.652  1.00  0.00    +0.000 O 
BRANCH    5    7
ATOM     95  H4  UNL A   1      27.132  21.899  11.934  1.00  0.00    +0.000 H 
ATOM      7  C4  UNL A   1      26.302  21.228  12.011  1.00  0.00    +0.000 C 
ATOM     96  H5  UNL A   1      26.593  20.386  12.604  1.00  0.00    +0.000 H 
BRANCH    7    8
ATOM     97  H6  UNL A   1      25.370  22.777  13.049  1.00  0.00    +0.000 H 
ATOM      8  N2  UNL A   1      25.182  21.907  12.629  1.00  0.00    +0.000 N 
BRANCH    8    9
ATOM      9  C5  UNL A   1      23.897  21.468  12.690  1.00  0.00    +0.000 C 
ATOM     10  O3  UNL A   1      22.997  22.121  12.181  1.00  0.00    +0.000 O 
BRANCH    9   11
ATOM     11  O4  UNL A   1      23.757  20.280  13.321  1.00  0.00    +0.000 O 
BRANCH   11   12
ATOM     98  H7  UNL A   1      22.645  19.509  11.780  1.00  0.00    +0.000 H 
ATOM     99  H8  UNL A   1      21.767  19.836  13.275  1.00  0.00    +0.000 H 
ATOM     12  C6  UNL A   1      22.673  19.463  12.848  1.00  0.00    +0.000 C 
BRANCH   12   13
ATOM    100  H9  UNL A   1      23.641  17.372  11.431  1.00  0.00    +0.000 H 
ATOM    101  H10 UNL A   1      23.769  15.034  12.039  1.00  0.00    +0.000 H 
ATOM    102  H11 UNL A   1      23.082  14.319  14.253  1.00  0.00    +0.000 H 
ATOM    103  H12 UNL A   1      22.257  15.947  15.850  1.00  0.00    +0.000 H 
ATOM    104  H13 UNL A   1      22.066  18.282  15.224  1.00  0.00    +0.000 H 
ATOM     13  C7  UNL A   1      22.829  18.022  13.270  1.00  0.00    +0.000 C 
ATOM     14  C8  UNL A   1      23.331  17.071  12.367  1.00  0.00    +0.000 C 
ATOM     15  C9  UNL A   1      23.414  15.725  12.719  1.00  0.00    +0.000 C 
ATOM     16  C10 UNL A   1      23.019  15.315  13.988  1.00  0.00    +0.000 C 
ATOM     17  C11 UNL A   1      22.537  16.251  14.904  1.00  0.00    +0.000 C 
ATOM     18  C12 UNL A   1      22.435  17.597  14.545  1.00  0.00    +0.000 C 
ENDBRANCH   12   13
ENDBRANCH   11   12
ENDBRANCH    9   11
ENDBRANCH    8    9
ENDBRANCH    7    8
ENDBRANCH    5    7
ENDBRANCH    4    5
ENDBRANCH    3    4
ENDBRANCH    2    3
ENDBRANCH   19    2
ENDBRANCH   20   19
ENDBRANCH   21   20
ENDBRANCH   22   21
ENDBRANCH   23   22
ENDBRANCH   24   23
ENDBRANCH   25   24
ENDBRANCH   26   25
ENDBRANCH   27   26
ENDBRANCH   29   27
ENDBRANCH   33   32
BRANCH   37   38
ATOM     38  C28 UNL A   1      25.710  18.896   4.357  1.00  0.00    +0.000 C 
ATOM     39  C29 UNL A   1      26.102  19.410   5.602  1.00  0.00    +0.000 C 
ATOM     40  F1  UNL A   1      25.204  20.014   6.396  1.00  0.00    +0.000 F 
ATOM     41  C30 UNL A   1      27.428  19.338   6.023  1.00  0.00    +0.000 C 
ATOM     42  F2  UNL A   1      27.786  19.876   7.197  1.00  0.00    +0.000 F 
ATOM     43  C31 UNL A   1      28.379  18.721   5.225  1.00  0.00    +0.000 C 
ATOM     44  F3  UNL A   1      29.652  18.643   5.636  1.00  0.00    +0.000 F 
ATOM     45  C32 UNL A   1      28.010  18.188   3.999  1.00  0.00    +0.000 C 
ATOM     46  F4  UNL A   1      28.926  17.578   3.233  1.00  0.00    +0.000 F 
ATOM     47  C33 UNL A   1      26.692  18.284   3.562  1.00  0.00    +0.000 C 
ATOM     48  F5  UNL A   1      26.370  17.770   2.366  1.00  0.00    +0.000 F 
ENDBRANCH   37   38
BRANCH   54   55
ATOM     65  F10 UNL A   1      20.991  24.544   3.225  1.00  0.00    +0.000 F 
ATOM     55  C39 UNL A   1      21.273  23.534   1.088  1.00  0.00    +0.000 C 
ATOM     56  C40 UNL A   1      21.422  23.725  -0.293  1.00  0.00    +0.000 C 
ATOM     57  F6  UNL A   1      21.566  22.668  -1.108  1.00  0.00    +0.000 F 
ATOM     58  C41 UNL A   1      21.463  25.005  -0.838  1.00  0.00    +0.000 C 
ATOM     59  F7  UNL A   1      21.650  25.165  -2.156  1.00  0.00    +0.000 F 
ATOM     60  C42 UNL A   1      21.321  26.116  -0.019  1.00  0.00    +0.000 C 
ATOM     61  F8  UNL A   1      21.351  27.347  -0.547  1.00  0.00    +0.000 F 
ATOM     62  C43 UNL A   1      21.155  25.950   1.348  1.00  0.00    +0.000 C 
ATOM     63  F9  UNL A   1      21.005  27.022   2.138  1.00  0.00    +0.000 F 
ATOM     64  C44 UNL A   1      21.144  24.672   1.899  1.00  0.00    +0.000 C 
ENDBRANCH   54   55
BRANCH   69   70
ATOM     70  C48 UNL A   1      16.083  18.930   1.728  1.00  0.00    +0.000 C 
ATOM     71  C49 UNL A   1      15.121  19.344   2.659  1.00  0.00    +0.000 C 
ATOM     72  F11 UNL A   1      15.497  19.709   3.894  1.00  0.00    +0.000 F 
ATOM     73  C50 UNL A   1      13.764  19.340   2.343  1.00  0.00    +0.000 C 
ATOM     74  F12 UNL A   1      12.862  19.692   3.268  1.00  0.00    +0.000 F 
ATOM     75  C51 UNL A   1      13.346  18.952   1.079  1.00  0.00    +0.000 C 
ATOM     76  F13 UNL A   1      12.042  18.948   0.774  1.00  0.00    +0.000 F 
ATOM     77  C52 UNL A   1      14.282  18.560   0.134  1.00  0.00    +0.000 C 
ATOM     78  F14 UNL A   1      13.883  18.197  -1.093  1.00  0.00    +0.000 F 
ATOM     79  C53 UNL A   1      15.637  18.536   0.459  1.00  0.00    +0.000 C 
ATOM     80  F15 UNL A   1      16.519  18.136  -0.469  1.00  0.00    +0.000 F 
ENDBRANCH   69   70
TORSDOF 23
ENDMDL
MODEL 5
REMARK VINA RESULT:      -9.5     45.465     50.982
ROOT
ATOM    129  H38 UNL A   1      15.776  47.262   0.943  1.00  0.00    +0.000 H 
ATOM    130  H39 UNL A   1      14.339  47.355   3.060  1.00  0.00    +0.000 H 
ATOM     33  C24 UNL A   1      14.202  49.946   4.239  1.00  0.00    +0.000 C 
ATOM     34  C25 UNL A   1      14.845  49.563   2.935  1.00  0.00    +0.000 C 
ATOM     35  N5  UNL A   1      15.470  50.316   2.065  1.00  0.00    +0.000 N 
ATOM     36  C26 UNL A   1      15.911  49.456   1.068  1.00  0.00    +0.000 C 
ATOM     37  C27 UNL A   1      16.560  49.758  -0.081  1.00  0.00    +0.000 C 
ATOM     49  C34 UNL A   1      16.916  51.093  -0.487  1.00  0.00    +0.000 C 
ATOM     50  C35 UNL A   1      17.522  51.505  -1.661  1.00  0.00    +0.000 C 
ATOM     51  C36 UNL A   1      17.704  52.890  -1.597  1.00  0.00    +0.000 C 
ATOM     52  C37 UNL A   1      17.166  53.347  -0.405  1.00  0.00    +0.000 C 
ATOM     53  N6  UNL A   1      16.692  52.232   0.269  1.00  0.00    +0.000 N 
ATOM     54  C38 UNL A   1      17.091  54.699   0.085  1.00  0.00    +0.000 C 
ATOM     66  C45 UNL A   1      16.549  55.065   1.272  1.00  0.00    +0.000 C 
ATOM     67  N7  UNL A   1      15.951  54.271   2.239  1.00  0.00    +0.000 N 
ATOM     68  C46 UNL A   1      15.593  55.085   3.203  1.00  0.00    +0.000 C 
ATOM     69  C47 UNL A   1      14.871  54.777   4.488  1.00  0.00    +0.000 C 
ATOM     81  C54 UNL A   1      14.488  53.512   4.743  1.00  0.00    +0.000 C 
ATOM     82  C55 UNL A   1      13.785  53.065   5.942  1.00  0.00    +0.000 C 
ATOM     83  C56 UNL A   1      13.625  51.733   5.885  1.00  0.00    +0.000 C 
ATOM     84  C57 UNL A   1      14.181  51.236   4.626  1.00  0.00    +0.000 C 
ATOM     85  N8  UNL A   1      14.655  52.365   4.004  1.00  0.00    +0.000 N 
ATOM     86  C58 UNL A   1      15.957  56.490   2.967  1.00  0.00    +0.000 C 
ATOM     87  C59 UNL A   1      16.498  56.428   1.758  1.00  0.00    +0.000 C 
ATOM     88  C60 UNL A   1      15.524  48.118   1.461  1.00  0.00    +0.000 C 
ATOM     89  C61 UNL A   1      14.804  48.137   2.574  1.00  0.00    +0.000 C 
ATOM    121  H30 UNL A   1      17.795  50.895  -2.448  1.00  0.00    +0.000 H 
ATOM    122  H31 UNL A   1      18.161  53.473  -2.316  1.00  0.00    +0.000 H 
ATOM    123  H32 UNL A   1      16.260  52.249   1.154  1.00  0.00    +0.000 H 
ATOM    124  H33 UNL A   1      13.463  53.675   6.709  1.00  0.00    +0.000 H 
ATOM    125  H34 UNL A   1      13.181  51.153   6.614  1.00  0.00    +0.000 H 
ATOM    126  H35 UNL A   1      15.074  52.355   3.113  1.00  0.00    +0.000 H 
ATOM    127  H36 UNL A   1      15.825  57.308   3.581  1.00  0.00    +0.000 H 
ATOM    128  H37 UNL A   1      16.841  57.247   1.232  1.00  0.00    +0.000 H 
ENDROOT
BRANCH   33   32
ATOM    131  H40 UNL A   1      11.674  49.085   4.436  1.00  0.00    +0.000 H 
ATOM    132  H41 UNL A   1      10.745  47.433   5.948  1.00  0.00    +0.000 H 
ATOM    119  H28 UNL A   1      14.588  46.656   7.471  1.00  0.00    +0.000 H 
ATOM    120  H29 UNL A   1      15.484  48.463   6.121  1.00  0.00    +0.000 H 
ATOM     90  C62 UNL A   1      12.292  48.584   5.095  1.00  0.00    +0.000 C 
ATOM     91  C63 UNL A   1      11.763  47.603   5.932  1.00  0.00    +0.000 C 
ATOM     29  C20 UNL A   1      12.611  46.852   6.748  1.00  0.00    +0.000 C 
ATOM     30  C21 UNL A   1      13.969  47.176   6.830  1.00  0.00    +0.000 C 
ATOM     31  C22 UNL A   1      14.488  48.208   6.041  1.00  0.00    +0.000 C 
ATOM     32  C23 UNL A   1      13.660  48.896   5.140  1.00  0.00    +0.000 C 
BRANCH   29   27
ATOM     27  C19 UNL A   1      12.098  45.718   7.549  1.00  0.00    +0.000 C 
ATOM     28  O5  UNL A   1      11.582  44.760   6.981  1.00  0.00    +0.000 O 
BRANCH   27   26
ATOM     26  N4  UNL A   1      12.177  45.747   8.920  1.00  0.00    +0.000 N 
ATOM    118  H27 UNL A   1      13.027  45.425   9.298  1.00  0.00    +0.000 H 
BRANCH   26   25
ATOM     25  C18 UNL A   1      11.191  46.182   9.899  1.00  0.00    +0.000 C 
ATOM    116  H25 UNL A   1      10.273  46.391   9.389  1.00  0.00    +0.000 H 
ATOM    117  H26 UNL A   1      11.077  45.395  10.614  1.00  0.00    +0.000 H 
BRANCH   25   24
ATOM    114  H23 UNL A   1      11.190  48.281  10.169  1.00  0.00    +0.000 H 
ATOM    115  H24 UNL A   1      11.287  47.300  11.664  1.00  0.00    +0.000 H 
ATOM     24  C17 UNL A   1      11.624  47.433  10.657  1.00  0.00    +0.000 C 
BRANCH   24   23
ATOM    113  H22 UNL A   1      13.571  46.918  10.102  1.00  0.00    +0.000 H 
ATOM     23  C16 UNL A   1      13.132  47.656  10.740  1.00  0.00    +0.000 C 
ATOM    112  H21 UNL A   1      13.421  47.570  11.767  1.00  0.00    +0.000 H 
BRANCH   23   22
ATOM    110  H19 UNL A   1      13.721  49.664  11.062  1.00  0.00    +0.000 H 
ATOM     22  C15 UNL A   1      13.632  49.006  10.222  1.00  0.00    +0.000 C 
ATOM    111  H20 UNL A   1      14.556  48.796   9.727  1.00  0.00    +0.000 H 
BRANCH   22   21
ATOM    109  H18 UNL A   1      11.960  49.018   8.950  1.00  0.00    +0.000 H 
ATOM    108  H17 UNL A   1      13.366  49.932   8.328  1.00  0.00    +0.000 H 
ATOM     21  C14 UNL A   1      12.753  49.701   9.174  1.00  0.00    +0.000 C 
BRANCH   21   20
ATOM    106  H15 UNL A   1      12.608  51.351  10.507  1.00  0.00    +0.000 H 
ATOM    107  H16 UNL A   1      12.127  51.687   8.832  1.00  0.00    +0.000 H 
ATOM     20  C13 UNL A   1      12.086  50.992   9.645  1.00  0.00    +0.000 C 
BRANCH   20   19
ATOM    105  H14 UNL A   1      10.040  50.657   9.271  1.00  0.00    +0.000 H 
ATOM     19  N3  UNL A   1      10.689  50.818   9.993  1.00  0.00    +0.000 N 
BRANCH   19    2
ATOM      1  O1  UNL A   1       9.043  50.808  11.595  1.00  0.00    +0.000 O 
ATOM      2  C1  UNL A   1      10.232  50.870  11.291  1.00  0.00    +0.000 C 
BRANCH    2    3
ATOM      3  C2  UNL A   1      11.314  51.091  12.358  1.00  0.00    +0.000 C 
ATOM     92  H1  UNL A   1      12.182  51.494  11.876  1.00  0.00    +0.000 H 
ATOM     93  H2  UNL A   1      11.497  50.140  12.812  1.00  0.00    +0.000 H 
BRANCH    3    4
ATOM      4  N1  UNL A   1      10.924  51.999  13.430  1.00  0.00    +0.000 N 
ATOM     94  H3  UNL A   1       9.962  52.199  13.488  1.00  0.00    +0.000 H 
BRANCH    4    5
ATOM      5  C3  UNL A   1      11.707  52.612  14.366  1.00  0.00    +0.000 C 
ATOM      6  O2  UNL A   1      12.056  51.958  15.350  1.00  0.00    +0.000 O 
BRANCH    5    7
ATOM     95  H4  UNL A   1      12.314  54.525  15.114  1.00  0.00    +0.000 H 
ATOM      7  C4  UNL A   1      12.167  54.055  14.163  1.00  0.00    +0.000 C 
ATOM     96  H5  UNL A   1      11.426  54.604  13.619  1.00  0.00    +0.000 H 
BRANCH    7    8
ATOM     97  H6  UNL A   1      14.241  54.061  13.960  1.00  0.00    +0.000 H 
ATOM      8  N2  UNL A   1      13.414  54.042  13.427  1.00  0.00    +0.000 N 
BRANCH    8    9
ATOM      9  C5  UNL A   1      13.562  54.004  12.077  1.00  0.00    +0.000 C 
ATOM     10  O3  UNL A   1      12.635  54.321  11.345  1.00  0.00    +0.000 O 
BRANCH    9   11
ATOM     11  O4  UNL A   1      14.795  53.621  11.675  1.00  0.00    +0.000 O 
BRANCH   11   12
ATOM     98  H7  UNL A   1      14.365  51.773  12.453  1.00  0.00    +0.000 H 
ATOM     99  H8  UNL A   1      15.875  52.506  12.999  1.00  0.00    +0.000 H 
ATOM     12  C6  UNL A   1      15.225  52.340  12.166  1.00  0.00    +0.000 C 
BRANCH   12   13
ATOM    100  H9  UNL A   1      15.095  52.531   9.471  1.00  0.00    +0.000 H 
ATOM    101  H10 UNL A   1      16.213  51.207   7.783  1.00  0.00    +0.000 H 
ATOM    102  H11 UNL A   1      17.808  49.502   8.440  1.00  0.00    +0.000 H 
ATOM    103  H12 UNL A   1      18.270  49.118  10.790  1.00  0.00    +0.000 H 
ATOM    104  H13 UNL A   1      17.105  50.398  12.488  1.00  0.00    +0.000 H 
ATOM     13  C7  UNL A   1      15.994  51.566  11.122  1.00  0.00    +0.000 C 
ATOM     14  C8  UNL A   1      15.758  51.795   9.757  1.00  0.00    +0.000 C 
ATOM     15  C9  UNL A   1      16.409  51.040   8.782  1.00  0.00    +0.000 C 
ATOM     16  C10 UNL A   1      17.322  50.061   9.160  1.00  0.00    +0.000 C 
ATOM     17  C11 UNL A   1      17.583  49.836  10.512  1.00  0.00    +0.000 C 
ATOM     18  C12 UNL A   1      16.916  50.579  11.489  1.00  0.00    +0.000 C 
ENDBRANCH   12   13
ENDBRANCH   11   12
ENDBRANCH    9   11
ENDBRANCH    8    9
ENDBRANCH    7    8
ENDBRANCH    5    7
ENDBRANCH    4    5
ENDBRANCH    3    4
ENDBRANCH    2    3
ENDBRANCH   19    2
ENDBRANCH   20   19
ENDBRANCH   21   20
ENDBRANCH   22   21
ENDBRANCH   23   22
ENDBRANCH   24   23
ENDBRANCH   25   24
ENDBRANCH   26   25
ENDBRANCH   27   26
ENDBRANCH   29   27
ENDBRANCH   33   32
BRANCH   37   38
ATOM     38  C28 UNL A   1      16.928  48.622  -0.991  1.00  0.00    +0.000 C 
ATOM     39  C29 UNL A   1      16.179  48.329  -2.140  1.00  0.00    +0.000 C 
ATOM     40  F1  UNL A   1      15.071  49.032  -2.422  1.00  0.00    +0.000 F 
ATOM     41  C30 UNL A   1      16.545  47.287  -2.989  1.00  0.00    +0.000 C 
ATOM     42  F2  UNL A   1      15.788  46.997  -4.056  1.00  0.00    +0.000 F 
ATOM     43  C31 UNL A   1      17.684  46.542  -2.725  1.00  0.00    +0.000 C 
ATOM     44  F3  UNL A   1      18.041  45.546  -3.548  1.00  0.00    +0.000 F 
ATOM     45  C32 UNL A   1      18.452  46.827  -1.605  1.00  0.00    +0.000 C 
ATOM     46  F4  UNL A   1      19.561  46.117  -1.357  1.00  0.00    +0.000 F 
ATOM     47  C33 UNL A   1      18.072  47.849  -0.739  1.00  0.00    +0.000 C 
ATOM     48  F5  UNL A   1      18.828  48.092   0.342  1.00  0.00    +0.000 F 
ENDBRANCH   37   38
BRANCH   54   55
ATOM     65  F10 UNL A   1      19.795  55.563   0.176  1.00  0.00    +0.000 F 
ATOM     55  C39 UNL A   1      17.632  55.789  -0.794  1.00  0.00    +0.000 C 
ATOM     56  C40 UNL A   1      16.816  56.475  -1.705  1.00  0.00    +0.000 C 
ATOM     57  F6  UNL A   1      15.529  56.124  -1.855  1.00  0.00    +0.000 F 
ATOM     58  C41 UNL A   1      17.331  57.500  -2.494  1.00  0.00    +0.000 C 
ATOM     59  F7  UNL A   1      16.545  58.112  -3.390  1.00  0.00    +0.000 F 
ATOM     60  C42 UNL A   1      18.659  57.881  -2.363  1.00  0.00    +0.000 C 
ATOM     61  F8  UNL A   1      19.150  58.874  -3.117  1.00  0.00    +0.000 F 
ATOM     62  C43 UNL A   1      19.479  57.227  -1.455  1.00  0.00    +0.000 C 
ATOM     63  F9  UNL A   1      20.758  57.603  -1.319  1.00  0.00    +0.000 F 
ATOM     64  C44 UNL A   1      18.974  56.183  -0.687  1.00  0.00    +0.000 C 
ENDBRANCH   54   55
BRANCH   69   70
ATOM     70  C48 UNL A   1      14.559  55.860   5.458  1.00  0.00    +0.000 C 
ATOM     71  C49 UNL A   1      15.575  56.458   6.217  1.00  0.00    +0.000 C 
ATOM     72  F11 UNL A   1      16.845  56.050   6.074  1.00  0.00    +0.000 F 
ATOM     73  C50 UNL A   1      15.286  57.446   7.156  1.00  0.00    +0.000 C 
ATOM     74  F12 UNL A   1      16.270  57.964   7.903  1.00  0.00    +0.000 F 
ATOM     75  C51 UNL A   1      13.980  57.875   7.334  1.00  0.00    +0.000 C 
ATOM     76  F13 UNL A   1      13.702  58.824   8.238  1.00  0.00    +0.000 F 
ATOM     77  C52 UNL A   1      12.961  57.313   6.580  1.00  0.00    +0.000 C 
ATOM     78  F14 UNL A   1      11.699  57.735   6.739  1.00  0.00    +0.000 F 
ATOM     79  C53 UNL A   1      13.246  56.306   5.660  1.00  0.00    +0.000 C 
ATOM     80  F15 UNL A   1      12.238  55.768   4.956  1.00  0.00    +0.000 F 
ENDBRANCH   69   70
TORSDOF 23
ENDMDL
MODEL 6
REMARK VINA RESULT:      -9.4     40.235     46.841
ROOT
ATOM    129  H38 UNL A   1      28.965  34.738  43.033  1.00  0.00    +0.000 H 
ATOM    130  H39 UNL A   1      26.514  34.843  43.764  1.00  0.00    +0.000 H 
ATOM     33  C24 UNL A   1      26.003  36.788  45.783  1.00  0.00    +0.000 C 
ATOM     34  C25 UNL A   1      27.290  36.549  45.042  1.00  0.00    +0.000 C 
ATOM     35  N5  UNL A   1      28.437  37.169  45.152  1.00  0.00    +0.000 N 
ATOM     36  C26 UNL A   1      29.302  36.522  44.278  1.00  0.00    +0.000 C 
ATOM     37  C27 UNL A   1      30.589  36.823  43.985  1.00  0.00    +0.000 C 
ATOM     49  C34 UNL A   1      31.315  37.927  44.557  1.00  0.00    +0.000 C 
ATOM     50  C35 UNL A   1      32.604  38.348  44.280  1.00  0.00    +0.000 C 
ATOM     51  C36 UNL A   1      32.896  39.437  45.107  1.00  0.00    +0.000 C 
ATOM     52  C37 UNL A   1      31.773  39.725  45.864  1.00  0.00    +0.000 C 
ATOM     53  N6  UNL A   1      30.812  38.786  45.521  1.00  0.00    +0.000 N 
ATOM     54  C38 UNL A   1      31.588  40.777  46.829  1.00  0.00    +0.000 C 
ATOM     66  C45 UNL A   1      30.451  40.992  47.536  1.00  0.00    +0.000 C 
ATOM     67  N7  UNL A   1      29.250  40.298  47.487  1.00  0.00    +0.000 N 
ATOM     68  C46 UNL A   1      28.463  40.879  48.360  1.00  0.00    +0.000 C 
ATOM     69  C47 UNL A   1      27.031  40.566  48.703  1.00  0.00    +0.000 C 
ATOM     81  C54 UNL A   1      26.396  39.576  48.047  1.00  0.00    +0.000 C 
ATOM     82  C55 UNL A   1      25.015  39.160  48.273  1.00  0.00    +0.000 C 
ATOM     83  C56 UNL A   1      24.741  38.104  47.490  1.00  0.00    +0.000 C 
ATOM     84  C57 UNL A   1      25.917  37.793  46.676  1.00  0.00    +0.000 C 
ATOM     85  N8  UNL A   1      26.844  38.730  47.062  1.00  0.00    +0.000 N 
ATOM     86  C58 UNL A   1      29.092  41.991  49.087  1.00  0.00    +0.000 C 
ATOM     87  C59 UNL A   1      30.287  42.044  48.517  1.00  0.00    +0.000 C 
ATOM     88  C60 UNL A   1      28.560  35.433  43.678  1.00  0.00    +0.000 C 
ATOM     89  C61 UNL A   1      27.293  35.448  44.067  1.00  0.00    +0.000 C 
ATOM    121  H30 UNL A   1      33.241  37.929  43.583  1.00  0.00    +0.000 H 
ATOM    122  H31 UNL A   1      33.796  39.941  45.146  1.00  0.00    +0.000 H 
ATOM    123  H32 UNL A   1      29.907  38.738  45.906  1.00  0.00    +0.000 H 
ATOM    124  H33 UNL A   1      24.356  39.606  48.930  1.00  0.00    +0.000 H 
ATOM    125  H34 UNL A   1      23.845  37.595  47.465  1.00  0.00    +0.000 H 
ATOM    126  H35 UNL A   1      27.746  38.790  46.669  1.00  0.00    +0.000 H 
ATOM    127  H36 UNL A   1      28.705  42.575  49.843  1.00  0.00    +0.000 H 
ATOM    128  H37 UNL A   1      31.010  42.745  48.744  1.00  0.00    +0.000 H 
ENDROOT
BRANCH   33   32
ATOM    131  H40 UNL A   1      23.877  37.118  44.188  1.00  0.00    +0.000 H 
ATOM    132  H41 UNL A   1      21.946  35.679  43.914  1.00  0.00    +0.000 H 
ATOM    119  H28 UNL A   1      23.660  32.868  46.531  1.00  0.00    +0.000 H 
ATOM    120  H29 UNL A   1      25.485  34.404  46.981  1.00  0.00    +0.000 H 
ATOM     90  C62 UNL A   1      23.824  36.224  44.703  1.00  0.00    +0.000 C 
ATOM     91  C63 UNL A   1      22.734  35.378  44.509  1.00  0.00    +0.000 C 
ATOM     29  C20 UNL A   1      22.708  34.124  45.123  1.00  0.00    +0.000 C 
ATOM     30  C21 UNL A   1      23.705  33.773  46.038  1.00  0.00    +0.000 C 
ATOM     31  C22 UNL A   1      24.763  34.652  46.285  1.00  0.00    +0.000 C 
ATOM     32  C23 UNL A   1      24.851  35.870  45.592  1.00  0.00    +0.000 C 
BRANCH   29   27
ATOM     27  C19 UNL A   1      21.630  33.151  44.834  1.00  0.00    +0.000 C 
ATOM     28  O5  UNL A   1      21.699  32.016  45.297  1.00  0.00    +0.000 O 
BRANCH   27   26
ATOM     26  N4  UNL A   1      20.571  33.507  44.035  1.00  0.00    +0.000 N 
ATOM    118  H27 UNL A   1      20.805  33.731  43.106  1.00  0.00    +0.000 H 
BRANCH   26   25
ATOM     25  C18 UNL A   1      19.154  33.601  44.356  1.00  0.00    +0.000 C 
ATOM    116  H25 UNL A   1      18.977  33.083  45.276  1.00  0.00    +0.000 H 
ATOM    117  H26 UNL A   1      18.909  34.640  44.432  1.00  0.00    +0.000 H 
BRANCH   25   24
ATOM    114  H23 UNL A   1      17.419  33.641  43.144  1.00  0.00    +0.000 H 
ATOM    115  H24 UNL A   1      18.874  32.909  42.402  1.00  0.00    +0.000 H 
ATOM     24  C17 UNL A   1      18.263  32.996  43.276  1.00  0.00    +0.000 C 
BRANCH   24   23
ATOM    113  H22 UNL A   1      17.282  31.255  42.666  1.00  0.00    +0.000 H 
ATOM     23  C16 UNL A   1      17.742  31.592  43.571  1.00  0.00    +0.000 C 
ATOM    112  H21 UNL A   1      17.069  31.658  44.401  1.00  0.00    +0.000 H 
BRANCH   23   22
ATOM    110  H19 UNL A   1      19.376  30.361  43.024  1.00  0.00    +0.000 H 
ATOM     22  C15 UNL A   1      18.807  30.548  43.911  1.00  0.00    +0.000 C 
ATOM    111  H20 UNL A   1      19.371  30.968  44.717  1.00  0.00    +0.000 H 
BRANCH   22   21
ATOM    109  H18 UNL A   1      17.523  29.423  45.136  1.00  0.00    +0.000 H 
ATOM    108  H17 UNL A   1      19.121  28.671  44.858  1.00  0.00    +0.000 H 
ATOM     21  C14 UNL A   1      18.295  29.198  44.430  1.00  0.00    +0.000 C 
BRANCH   21   20
ATOM    106  H15 UNL A   1      16.796  28.797  42.975  1.00  0.00    +0.000 H 
ATOM    107  H16 UNL A   1      18.397  28.117  42.619  1.00  0.00    +0.000 H 
ATOM     20  C13 UNL A   1      17.657  28.299  43.370  1.00  0.00    +0.000 C 
BRANCH   20   19
ATOM    105  H14 UNL A   1      17.921  26.301  43.985  1.00  0.00    +0.000 H 
ATOM     19  N3  UNL A   1      17.244  27.010  43.890  1.00  0.00    +0.000 N 
BRANCH   19    2
ATOM      1  O1  UNL A   1      15.541  26.783  45.413  1.00  0.00    +0.000 O 
ATOM      2  C1  UNL A   1      15.945  26.734  44.254  1.00  0.00    +0.000 C 
BRANCH    2    3
ATOM      3  C2  UNL A   1      15.027  26.279  43.111  1.00  0.00    +0.000 C 
ATOM     92  H1  UNL A   1      15.468  26.587  42.185  1.00  0.00    +0.000 H 
ATOM     93  H2  UNL A   1      14.073  26.729  43.285  1.00  0.00    +0.000 H 
BRANCH    3    4
ATOM      4  N1  UNL A   1      14.807  24.838  43.055  1.00  0.00    +0.000 N 
ATOM     94  H3  UNL A   1      14.875  24.365  43.915  1.00  0.00    +0.000 H 
BRANCH    4    5
ATOM      5  C3  UNL A   1      14.521  24.053  41.975  1.00  0.00    +0.000 C 
ATOM      6  O2  UNL A   1      14.415  24.594  40.874  1.00  0.00    +0.000 O 
BRANCH    5    7
ATOM     95  H4  UNL A   1      14.482  22.274  43.168  1.00  0.00    +0.000 H 
ATOM      7  C4  UNL A   1      14.382  22.539  42.136  1.00  0.00    +0.000 C 
ATOM     96  H5  UNL A   1      15.144  22.039  41.576  1.00  0.00    +0.000 H 
BRANCH    7    8
ATOM     97  H6  UNL A   1      12.309  22.684  41.961  1.00  0.00    +0.000 H 
ATOM      8  N2  UNL A   1      13.073  22.144  41.656  1.00  0.00    +0.000 N 
BRANCH    8    9
ATOM      9  C5  UNL A   1      12.790  21.105  40.827  1.00  0.00    +0.000 C 
ATOM     10  O3  UNL A   1      12.536  20.001  41.286  1.00  0.00    +0.000 O 
BRANCH    9   11
ATOM     11  O4  UNL A   1      12.800  21.437  39.516  1.00  0.00    +0.000 O 
BRANCH   11   12
ATOM     98  H7  UNL A   1      13.686  20.175  38.165  1.00  0.00    +0.000 H 
ATOM     99  H8  UNL A   1      14.711  20.722  39.494  1.00  0.00    +0.000 H 
ATOM     12  C6  UNL A   1      13.959  21.001  38.786  1.00  0.00    +0.000 C 
BRANCH   12   13
ATOM    100  H9  UNL A   1      16.120  20.942  37.160  1.00  0.00    +0.000 H 
ATOM    101  H10 UNL A   1      17.119  22.727  35.870  1.00  0.00    +0.000 H 
ATOM    102  H11 UNL A   1      16.079  24.919  35.825  1.00  0.00    +0.000 H 
ATOM    103  H12 UNL A   1      14.046  25.320  37.085  1.00  0.00    +0.000 H 
ATOM    104  H13 UNL A   1      13.076  23.552  38.432  1.00  0.00    +0.000 H 
ATOM     13  C7  UNL A   1      14.523  22.100  37.917  1.00  0.00    +0.000 C 
ATOM     14  C8  UNL A   1      15.684  21.876  37.160  1.00  0.00    +0.000 C 
ATOM     15  C9  UNL A   1      16.255  22.901  36.408  1.00  0.00    +0.000 C 
ATOM     16  C10 UNL A   1      15.660  24.158  36.384  1.00  0.00    +0.000 C 
ATOM     17  C11 UNL A   1      14.494  24.390  37.114  1.00  0.00    +0.000 C 
ATOM     18  C12 UNL A   1      13.932  23.369  37.884  1.00  0.00    +0.000 C 
ENDBRANCH   12   13
ENDBRANCH   11   12
ENDBRANCH    9   11
ENDBRANCH    8    9
ENDBRANCH    7    8
ENDBRANCH    5    7
ENDBRANCH    4    5
ENDBRANCH    3    4
ENDBRANCH    2    3
ENDBRANCH   19    2
ENDBRANCH   20   19
ENDBRANCH   21   20
ENDBRANCH   22   21
ENDBRANCH   23   22
ENDBRANCH   24   23
ENDBRANCH   25   24
ENDBRANCH   26   25
ENDBRANCH   27   26
ENDBRANCH   29   27
ENDBRANCH   33   32
BRANCH   37   38
ATOM     38  C28 UNL A   1      31.300  35.948  42.995  1.00  0.00    +0.000 C 
ATOM     39  C29 UNL A   1      31.885  34.731  43.377  1.00  0.00    +0.000 C 
ATOM     40  F1  UNL A   1      31.868  34.348  44.663  1.00  0.00    +0.000 F 
ATOM     41  C30 UNL A   1      32.523  33.917  42.444  1.00  0.00    +0.000 C 
ATOM     42  F2  UNL A   1      33.112  32.781  42.840  1.00  0.00    +0.000 F 
ATOM     43  C31 UNL A   1      32.557  34.286  41.108  1.00  0.00    +0.000 C 
ATOM     44  F3  UNL A   1      33.162  33.497  40.209  1.00  0.00    +0.000 F 
ATOM     45  C32 UNL A   1      31.969  35.475  40.704  1.00  0.00    +0.000 C 
ATOM     46  F4  UNL A   1      31.990  35.826  39.410  1.00  0.00    +0.000 F 
ATOM     47  C33 UNL A   1      31.357  36.305  41.639  1.00  0.00    +0.000 C 
ATOM     48  F5  UNL A   1      30.807  37.455  41.219  1.00  0.00    +0.000 F 
ENDBRANCH   37   38
BRANCH   54   55
ATOM     65  F10 UNL A   1      31.639  43.417  45.785  1.00  0.00    +0.000 F 
ATOM     55  C39 UNL A   1      32.730  41.725  47.055  1.00  0.00    +0.000 C 
ATOM     56  C40 UNL A   1      33.868  41.348  47.782  1.00  0.00    +0.000 C 
ATOM     57  F6  UNL A   1      33.935  40.134  48.350  1.00  0.00    +0.000 F 
ATOM     58  C41 UNL A   1      34.928  42.234  47.960  1.00  0.00    +0.000 C 
ATOM     59  F7  UNL A   1      35.987  41.868  48.695  1.00  0.00    +0.000 F 
ATOM     60  C42 UNL A   1      34.885  43.496  47.387  1.00  0.00    +0.000 C 
ATOM     61  F8  UNL A   1      35.910  44.344  47.552  1.00  0.00    +0.000 F 
ATOM     62  C43 UNL A   1      33.775  43.883  46.650  1.00  0.00    +0.000 C 
ATOM     63  F9  UNL A   1      33.738  45.098  46.085  1.00  0.00    +0.000 F 
ATOM     64  C44 UNL A   1      32.702  43.011  46.495  1.00  0.00    +0.000 C 
ENDBRANCH   54   55
BRANCH   69   70
ATOM     70  C48 UNL A   1      26.312  41.354  49.738  1.00  0.00    +0.000 C 
ATOM     71  C49 UNL A   1      26.308  40.944  51.079  1.00  0.00    +0.000 C 
ATOM     72  F11 UNL A   1      26.953  39.824  51.437  1.00  0.00    +0.000 F 
ATOM     73  C50 UNL A   1      25.604  41.655  52.048  1.00  0.00    +0.000 C 
ATOM     74  F12 UNL A   1      25.576  41.213  53.312  1.00  0.00    +0.000 F 
ATOM     75  C51 UNL A   1      24.915  42.808  51.702  1.00  0.00    +0.000 C 
ATOM     76  F13 UNL A   1      24.238  43.491  52.634  1.00  0.00    +0.000 F 
ATOM     77  C52 UNL A   1      24.923  43.245  50.386  1.00  0.00    +0.000 C 
ATOM     78  F14 UNL A   1      24.270  44.366  50.050  1.00  0.00    +0.000 F 
ATOM     79  C53 UNL A   1      25.603  42.518  49.411  1.00  0.00    +0.000 C 
ATOM     80  F15 UNL A   1      25.579  42.956  48.143  1.00  0.00    +0.000 F 
ENDBRANCH   69   70
TORSDOF 23
ENDMDL
MODEL 7
REMARK VINA RESULT:      -9.4     41.334     47.588
ROOT
ATOM    129  H38 UNL A   1      24.774  41.846  48.957  1.00  0.00    +0.000 H 
ATOM    130  H39 UNL A   1      23.988  39.572  48.081  1.00  0.00    +0.000 H 
ATOM     33  C24 UNL A   1      25.937  38.215  46.506  1.00  0.00    +0.000 C 
ATOM     34  C25 UNL A   1      26.106  39.497  47.273  1.00  0.00    +0.000 C 
ATOM     35  N5  UNL A   1      27.164  40.260  47.390  1.00  0.00    +0.000 N 
ATOM     36  C26 UNL A   1      26.765  41.342  48.165  1.00  0.00    +0.000 C 
ATOM     37  C27 UNL A   1      27.511  42.379  48.614  1.00  0.00    +0.000 C 
ATOM     49  C34 UNL A   1      28.918  42.540  48.357  1.00  0.00    +0.000 C 
ATOM     50  C35 UNL A   1      29.773  43.525  48.818  1.00  0.00    +0.000 C 
ATOM     51  C36 UNL A   1      31.040  43.295  48.276  1.00  0.00    +0.000 C 
ATOM     52  C37 UNL A   1      30.988  42.138  47.516  1.00  0.00    +0.000 C 
ATOM     53  N6  UNL A   1      29.677  41.688  47.569  1.00  0.00    +0.000 N 
ATOM     54  C38 UNL A   1      32.052  41.489  46.795  1.00  0.00    +0.000 C 
ATOM     66  C45 UNL A   1      31.917  40.354  46.067  1.00  0.00    +0.000 C 
ATOM     67  N7  UNL A   1      30.786  39.574  45.870  1.00  0.00    +0.000 N 
ATOM     68  C46 UNL A   1      31.159  38.589  45.088  1.00  0.00    +0.000 C 
ATOM     69  C47 UNL A   1      30.353  37.426  44.575  1.00  0.00    +0.000 C 
ATOM     81  C54 UNL A   1      29.065  37.301  44.947  1.00  0.00    +0.000 C 
ATOM     82  C55 UNL A   1      28.163  36.231  44.530  1.00  0.00    +0.000 C 
ATOM     83  C56 UNL A   1      26.943  36.462  45.039  1.00  0.00    +0.000 C 
ATOM     84  C57 UNL A   1      26.985  37.678  45.851  1.00  0.00    +0.000 C 
ATOM     85  N8  UNL A   1      28.289  38.097  45.754  1.00  0.00    +0.000 N 
ATOM     86  C58 UNL A   1      32.568  38.655  44.674  1.00  0.00    +0.000 C 
ATOM     87  C59 UNL A   1      32.993  39.724  45.332  1.00  0.00    +0.000 C 
ATOM     88  C60 UNL A   1      25.358  41.162  48.452  1.00  0.00    +0.000 C 
ATOM     89  C61 UNL A   1      24.919  40.004  47.979  1.00  0.00    +0.000 C 
ATOM    121  H30 UNL A   1      29.518  44.300  49.452  1.00  0.00    +0.000 H 
ATOM    122  H31 UNL A   1      31.875  43.886  48.417  1.00  0.00    +0.000 H 
ATOM    123  H32 UNL A   1      29.337  40.883  47.115  1.00  0.00    +0.000 H 
ATOM    124  H33 UNL A   1      28.424  35.426  43.938  1.00  0.00    +0.000 H 
ATOM    125  H34 UNL A   1      26.108  35.876  44.882  1.00  0.00    +0.000 H 
ATOM    126  H35 UNL A   1      28.636  38.893  46.218  1.00  0.00    +0.000 H 
ATOM    127  H36 UNL A   1      33.088  38.032  44.037  1.00  0.00    +0.000 H 
ATOM    128  H37 UNL A   1      33.967  40.065  45.320  1.00  0.00    +0.000 H 
ENDROOT
BRANCH   33   32
ATOM    131  H40 UNL A   1      24.016  38.699  44.703  1.00  0.00    +0.000 H 
ATOM    132  H41 UNL A   1      21.795  37.741  44.556  1.00  0.00    +0.000 H 
ATOM    119  H28 UNL A   1      22.659  35.219  47.809  1.00  0.00    +0.000 H 
ATOM    120  H29 UNL A   1      24.796  36.333  48.100  1.00  0.00    +0.000 H 
ATOM     90  C62 UNL A   1      23.722  37.974  45.377  1.00  0.00    +0.000 C 
ATOM     91  C63 UNL A   1      22.461  37.392  45.263  1.00  0.00    +0.000 C 
ATOM     29  C20 UNL A   1      22.100  36.340  46.106  1.00  0.00    +0.000 C 
ATOM     30  C21 UNL A   1      22.946  35.962  47.154  1.00  0.00    +0.000 C 
ATOM     31  C22 UNL A   1      24.184  36.594  47.311  1.00  0.00    +0.000 C 
ATOM     32  C23 UNL A   1      24.598  37.580  46.402  1.00  0.00    +0.000 C 
BRANCH   29   27
ATOM     27  C19 UNL A   1      20.822  35.616  45.925  1.00  0.00    +0.000 C 
ATOM     28  O5  UNL A   1      20.555  35.124  44.832  1.00  0.00    +0.000 O 
BRANCH   27   26
ATOM     26  N4  UNL A   1      19.929  35.515  46.964  1.00  0.00    +0.000 N 
ATOM    118  H27 UNL A   1      19.581  34.609  47.130  1.00  0.00    +0.000 H 
BRANCH   26   25
ATOM     25  C18 UNL A   1      19.422  36.546  47.857  1.00  0.00    +0.000 C 
ATOM    116  H25 UNL A   1      20.241  36.946  48.418  1.00  0.00    +0.000 H 
ATOM    117  H26 UNL A   1      18.953  37.293  47.252  1.00  0.00    +0.000 H 
BRANCH   25   24
ATOM    114  H23 UNL A   1      18.668  35.036  49.134  1.00  0.00    +0.000 H 
ATOM    115  H24 UNL A   1      18.339  36.723  49.638  1.00  0.00    +0.000 H 
ATOM     24  C17 UNL A   1      18.374  36.020  48.832  1.00  0.00    +0.000 C 
BRANCH   24   23
ATOM    113  H22 UNL A   1      16.305  36.017  49.129  1.00  0.00    +0.000 H 
ATOM     23  C16 UNL A   1      16.952  35.939  48.280  1.00  0.00    +0.000 C 
ATOM    112  H21 UNL A   1      16.859  35.015  47.747  1.00  0.00    +0.000 H 
BRANCH   23   22
ATOM    110  H19 UNL A   1      15.572  37.411  47.639  1.00  0.00    +0.000 H 
ATOM     22  C15 UNL A   1      16.541  37.071  47.337  1.00  0.00    +0.000 C 
ATOM    111  H20 UNL A   1      17.313  37.806  47.421  1.00  0.00    +0.000 H 
BRANCH   22   21
ATOM    109  H18 UNL A   1      17.296  37.217  45.382  1.00  0.00    +0.000 H 
ATOM    108  H17 UNL A   1      15.519  37.043  45.474  1.00  0.00    +0.000 H 
ATOM     21  C14 UNL A   1      16.469  36.720  45.845  1.00  0.00    +0.000 C 
BRANCH   21   20
ATOM    106  H15 UNL A   1      17.519  34.877  45.991  1.00  0.00    +0.000 H 
ATOM    107  H16 UNL A   1      15.753  34.736  45.887  1.00  0.00    +0.000 H 
ATOM     20  C13 UNL A   1      16.626  35.235  45.522  1.00  0.00    +0.000 C 
BRANCH   20   19
ATOM    105  H14 UNL A   1      17.493  35.308  43.603  1.00  0.00    +0.000 H 
ATOM     19  N3  UNL A   1      16.714  34.967  44.100  1.00  0.00    +0.000 N 
BRANCH   19    2
ATOM      1  O1  UNL A   1      15.504  34.429  42.224  1.00  0.00    +0.000 O 
ATOM      2  C1  UNL A   1      15.754  34.257  43.414  1.00  0.00    +0.000 C 
BRANCH    2    3
ATOM      3  C2  UNL A   1      14.942  33.267  44.262  1.00  0.00    +0.000 C 
ATOM     92  H1  UNL A   1      13.947  33.226  43.867  1.00  0.00    +0.000 H 
ATOM     93  H2  UNL A   1      14.974  33.626  45.269  1.00  0.00    +0.000 H 
BRANCH    3    4
ATOM      4  N1  UNL A   1      15.482  31.912  44.283  1.00  0.00    +0.000 N 
ATOM     94  H3  UNL A   1      14.873  31.219  44.626  1.00  0.00    +0.000 H 
BRANCH    4    5
ATOM      5  C3  UNL A   1      16.714  31.471  43.893  1.00  0.00    +0.000 C 
ATOM      6  O2  UNL A   1      16.825  30.975  42.771  1.00  0.00    +0.000 O 
BRANCH    5    7
ATOM     95  H4  UNL A   1      17.704  31.206  45.773  1.00  0.00    +0.000 H 
ATOM      7  C4  UNL A   1      17.921  31.634  44.817  1.00  0.00    +0.000 C 
ATOM     96  H5  UNL A   1      18.145  32.672  44.947  1.00  0.00    +0.000 H 
BRANCH    7    8
ATOM     97  H6  UNL A   1      19.121  30.988  43.240  1.00  0.00    +0.000 H 
ATOM      8  N2  UNL A   1      19.051  30.953  44.221  1.00  0.00    +0.000 N 
BRANCH    8    9
ATOM      9  C5  UNL A   1      20.027  30.270  44.876  1.00  0.00    +0.000 C 
ATOM     10  O3  UNL A   1      19.962  29.054  44.987  1.00  0.00    +0.000 O 
BRANCH    9   11
ATOM     11  O4  UNL A   1      21.027  31.057  45.334  1.00  0.00    +0.000 O 
BRANCH   11   12
ATOM     98  H7  UNL A   1      20.993  32.724  44.142  1.00  0.00    +0.000 H 
ATOM     99  H8  UNL A   1      21.807  31.311  43.466  1.00  0.00    +0.000 H 
ATOM     12  C6  UNL A   1      21.642  31.899  44.345  1.00  0.00    +0.000 C 
BRANCH   12   13
ATOM    100  H9  UNL A   1      23.162  31.089  46.429  1.00  0.00    +0.000 H 
ATOM    101  H10 UNL A   1      25.233  32.016  47.270  1.00  0.00    +0.000 H 
ATOM    102  H11 UNL A   1      26.291  33.866  46.112  1.00  0.00    +0.000 H 
ATOM    103  H12 UNL A   1      25.265  34.793  44.120  1.00  0.00    +0.000 H 
ATOM    104  H13 UNL A   1      23.156  33.910  43.310  1.00  0.00    +0.000 H 
ATOM     13  C7  UNL A   1      22.977  32.430  44.808  1.00  0.00    +0.000 C 
ATOM     14  C8  UNL A   1      23.598  31.887  45.944  1.00  0.00    +0.000 C 
ATOM     15  C9  UNL A   1      24.796  32.414  46.424  1.00  0.00    +0.000 C 
ATOM     16  C10 UNL A   1      25.402  33.476  45.761  1.00  0.00    +0.000 C 
ATOM     17  C11 UNL A   1      24.807  34.013  44.618  1.00  0.00    +0.000 C 
ATOM     18  C12 UNL A   1      23.597  33.499  44.148  1.00  0.00    +0.000 C 
ENDBRANCH   12   13
ENDBRANCH   11   12
ENDBRANCH    9   11
ENDBRANCH    8    9
ENDBRANCH    7    8
ENDBRANCH    5    7
ENDBRANCH    4    5
ENDBRANCH    3    4
ENDBRANCH    2    3
ENDBRANCH   19    2
ENDBRANCH   20   19
ENDBRANCH   21   20
ENDBRANCH   22   21
ENDBRANCH   23   22
ENDBRANCH   24   23
ENDBRANCH   25   24
ENDBRANCH   26   25
ENDBRANCH   27   26
ENDBRANCH   29   27
ENDBRANCH   33   32
BRANCH   37   38
ATOM     38  C28 UNL A   1      26.821  43.426  49.440  1.00  0.00    +0.000 C 
ATOM     39  C29 UNL A   1      26.738  43.324  50.837  1.00  0.00    +0.000 C 
ATOM     40  F1  UNL A   1      27.233  42.246  51.465  1.00  0.00    +0.000 F 
ATOM     41  C30 UNL A   1      26.116  44.314  51.593  1.00  0.00    +0.000 C 
ATOM     42  F2  UNL A   1      26.010  44.173  52.921  1.00  0.00    +0.000 F 
ATOM     43  C31 UNL A   1      25.595  45.439  50.972  1.00  0.00    +0.000 C 
ATOM     44  F3  UNL A   1      25.005  46.396  51.701  1.00  0.00    +0.000 F 
ATOM     45  C32 UNL A   1      25.682  45.571  49.594  1.00  0.00    +0.000 C 
ATOM     46  F4  UNL A   1      25.192  46.664  48.994  1.00  0.00    +0.000 F 
ATOM     47  C33 UNL A   1      26.278  44.569  48.832  1.00  0.00    +0.000 C 
ATOM     48  F5  UNL A   1      26.336  44.719  47.501  1.00  0.00    +0.000 F 
ENDBRANCH   37   38
BRANCH   54   55
ATOM     65  F10 UNL A   1      32.764  43.865  45.412  1.00  0.00    +0.000 F 
ATOM     55  C39 UNL A   1      33.420  42.102  46.871  1.00  0.00    +0.000 C 
ATOM     56  C40 UNL A   1      34.451  41.514  47.618  1.00  0.00    +0.000 C 
ATOM     57  F6  UNL A   1      34.215  40.407  48.339  1.00  0.00    +0.000 F 
ATOM     58  C41 UNL A   1      35.720  42.085  47.657  1.00  0.00    +0.000 C 
ATOM     59  F7  UNL A   1      36.678  41.531  48.412  1.00  0.00    +0.000 F 
ATOM     60  C42 UNL A   1      35.991  43.231  46.924  1.00  0.00    +0.000 C 
ATOM     61  F8  UNL A   1      37.217  43.774  46.956  1.00  0.00    +0.000 F 
ATOM     62  C43 UNL A   1      34.991  43.820  46.165  1.00  0.00    +0.000 C 
ATOM     63  F9  UNL A   1      35.255  44.920  45.447  1.00  0.00    +0.000 F 
ATOM     64  C44 UNL A   1      33.713  43.268  46.148  1.00  0.00    +0.000 C 
ENDBRANCH   54   55
BRANCH   69   70
ATOM     70  C48 UNL A   1      30.974  36.408  43.687  1.00  0.00    +0.000 C 
ATOM     71  C49 UNL A   1      31.381  35.166  44.193  1.00  0.00    +0.000 C 
ATOM     72  F11 UNL A   1      31.216  34.888  45.495  1.00  0.00    +0.000 F 
ATOM     73  C50 UNL A   1      31.999  34.222  43.376  1.00  0.00    +0.000 C 
ATOM     74  F12 UNL A   1      32.423  33.063  43.896  1.00  0.00    +0.000 F 
ATOM     75  C51 UNL A   1      32.196  34.490  42.030  1.00  0.00    +0.000 C 
ATOM     76  F13 UNL A   1      32.791  33.584  41.244  1.00  0.00    +0.000 F 
ATOM     77  C52 UNL A   1      31.783  35.704  41.501  1.00  0.00    +0.000 C 
ATOM     78  F14 UNL A   1      31.959  35.962  40.198  1.00  0.00    +0.000 F 
ATOM     79  C53 UNL A   1      31.190  36.660  42.325  1.00  0.00    +0.000 C 
ATOM     80  F15 UNL A   1      30.815  37.832  41.790  1.00  0.00    +0.000 F 
ENDBRANCH   69   70
TORSDOF 23
ENDMDL
MODEL 8
REMARK VINA RESULT:      -9.4     49.277     57.824
ROOT
ATOM    129  H38 UNL A   1       6.081   8.946  38.799  1.00  0.00    +0.000 H 
ATOM    130  H39 UNL A   1       4.572  10.986  39.145  1.00  0.00    +0.000 H 
ATOM     33  C24 UNL A   1       1.989  10.712  37.973  1.00  0.00    +0.000 C 
ATOM     34  C25 UNL A   1       3.069   9.670  38.070  1.00  0.00    +0.000 C 
ATOM     35  N5  UNL A   1       3.065   8.430  37.651  1.00  0.00    +0.000 N 
ATOM     36  C26 UNL A   1       4.326   7.927  37.946  1.00  0.00    +0.000 C 
ATOM     37  C27 UNL A   1       4.799   6.672  37.760  1.00  0.00    +0.000 C 
ATOM     49  C34 UNL A   1       4.033   5.589  37.202  1.00  0.00    +0.000 C 
ATOM     50  C35 UNL A   1       4.406   4.267  37.029  1.00  0.00    +0.000 C 
ATOM     51  C36 UNL A   1       3.348   3.591  36.413  1.00  0.00    +0.000 C 
ATOM     52  C37 UNL A   1       2.298   4.479  36.248  1.00  0.00    +0.000 C 
ATOM     53  N6  UNL A   1       2.734   5.703  36.731  1.00  0.00    +0.000 N 
ATOM     54  C38 UNL A   1       0.994   4.232  35.691  1.00  0.00    +0.000 C 
ATOM     66  C45 UNL A   1       0.016   5.161  35.560  1.00  0.00    +0.000 C 
ATOM     67  N7  UNL A   1       0.030   6.498  35.929  1.00  0.00    +0.000 N 
ATOM     68  C46 UNL A   1      -1.143   6.978  35.591  1.00  0.00    +0.000 C 
ATOM     69  C47 UNL A   1      -1.694   8.365  35.786  1.00  0.00    +0.000 C 
ATOM     81  C54 UNL A   1      -0.942   9.293  36.407  1.00  0.00    +0.000 C 
ATOM     82  C55 UNL A   1      -1.341  10.674  36.665  1.00  0.00    +0.000 C 
ATOM     83  C56 UNL A   1      -0.319  11.326  37.242  1.00  0.00    +0.000 C 
ATOM     84  C57 UNL A   1       0.797  10.397  37.431  1.00  0.00    +0.000 C 
ATOM     85  N8  UNL A   1       0.329   9.210  36.923  1.00  0.00    +0.000 N 
ATOM     86  C58 UNL A   1      -2.023   6.000  34.935  1.00  0.00    +0.000 C 
ATOM     87  C59 UNL A   1      -1.285   4.900  34.980  1.00  0.00    +0.000 C 
ATOM     88  C60 UNL A   1       5.085   9.008  38.538  1.00  0.00    +0.000 C 
ATOM     89  C61 UNL A   1       4.332  10.087  38.698  1.00  0.00    +0.000 C 
ATOM    121  H30 UNL A   1       5.310   3.853  37.305  1.00  0.00    +0.000 H 
ATOM    122  H31 UNL A   1       3.350   2.599  36.130  1.00  0.00    +0.000 H 
ATOM    123  H32 UNL A   1       2.200   6.531  36.737  1.00  0.00    +0.000 H 
ATOM    124  H33 UNL A   1      -2.261  11.082  36.439  1.00  0.00    +0.000 H 
ATOM    125  H34 UNL A   1      -0.319  12.322  37.509  1.00  0.00    +0.000 H 
ATOM    126  H35 UNL A   1       0.855   8.377  36.928  1.00  0.00    +0.000 H 
ATOM    127  H36 UNL A   1      -2.967   6.135  34.543  1.00  0.00    +0.000 H 
ATOM    128  H37 UNL A   1      -1.597   3.976  34.643  1.00  0.00    +0.000 H 
ENDROOT
BRANCH   33   32
ATOM    131  H40 UNL A   1       1.687  11.778  40.412  1.00  0.00    +0.000 H 
ATOM    132  H41 UNL A   1       2.043  14.067  41.123  1.00  0.00    +0.000 H 
ATOM    119  H28 UNL A   1       3.418  15.057  37.274  1.00  0.00    +0.000 H 
ATOM    120  H29 UNL A   1       2.851  12.827  36.501  1.00  0.00    +0.000 H 
ATOM     90  C62 UNL A   1       2.036  12.479  39.738  1.00  0.00    +0.000 C 
ATOM     91  C63 UNL A   1       2.283  13.783  40.160  1.00  0.00    +0.000 C 
ATOM     29  C20 UNL A   1       2.852  14.705  39.279  1.00  0.00    +0.000 C 
ATOM     30  C21 UNL A   1       3.046  14.361  37.938  1.00  0.00    +0.000 C 
ATOM     31  C22 UNL A   1       2.733  13.072  37.497  1.00  0.00    +0.000 C 
ATOM     32  C23 UNL A   1       2.260  12.108  38.402  1.00  0.00    +0.000 C 
BRANCH   29   27
ATOM     27  C19 UNL A   1       3.246  16.057  39.734  1.00  0.00    +0.000 C 
ATOM     28  O5  UNL A   1       2.383  16.843  40.115  1.00  0.00    +0.000 O 
BRANCH   27   26
ATOM     26  N4  UNL A   1       4.565  16.440  39.707  1.00  0.00    +0.000 N 
ATOM    118  H27 UNL A   1       4.718  17.409  39.625  1.00  0.00    +0.000 H 
BRANCH   26   25
ATOM     25  C18 UNL A   1       5.771  15.628  39.783  1.00  0.00    +0.000 C 
ATOM    116  H25 UNL A   1       5.510  14.610  39.579  1.00  0.00    +0.000 H 
ATOM    117  H26 UNL A   1       6.464  16.012  39.065  1.00  0.00    +0.000 H 
BRANCH   25   24
ATOM    114  H23 UNL A   1       5.863  16.346  41.772  1.00  0.00    +0.000 H 
ATOM    115  H24 UNL A   1       6.483  14.687  41.510  1.00  0.00    +0.000 H 
ATOM     24  C17 UNL A   1       6.442  15.694  41.152  1.00  0.00    +0.000 C 
BRANCH   24   23
ATOM    113  H22 UNL A   1       8.449  15.475  41.690  1.00  0.00    +0.000 H 
ATOM     23  C16 UNL A   1       7.882  16.202  41.148  1.00  0.00    +0.000 C 
ATOM    112  H21 UNL A   1       7.888  17.176  41.591  1.00  0.00    +0.000 H 
BRANCH   23   22
ATOM    110  H19 UNL A   1       8.881  15.328  39.498  1.00  0.00    +0.000 H 
ATOM     22  C15 UNL A   1       8.544  16.306  39.773  1.00  0.00    +0.000 C 
ATOM    111  H20 UNL A   1       7.796  16.713  39.127  1.00  0.00    +0.000 H 
BRANCH   22   21
ATOM    109  H18 UNL A   1       9.563  17.867  38.803  1.00  0.00    +0.000 H 
ATOM    108  H17 UNL A   1      10.630  16.669  39.593  1.00  0.00    +0.000 H 
ATOM     21  C14 UNL A   1       9.742  17.260  39.666  1.00  0.00    +0.000 C 
BRANCH   21   20
ATOM    106  H15 UNL A   1       9.584  19.196  40.531  1.00  0.00    +0.000 H 
ATOM    107  H16 UNL A   1       9.318  17.843  41.650  1.00  0.00    +0.000 H 
ATOM     20  C13 UNL A   1       9.907  18.223  40.841  1.00  0.00    +0.000 C 
BRANCH   20   19
ATOM    105  H14 UNL A   1      11.517  17.874  42.154  1.00  0.00    +0.000 H 
ATOM     19  N3  UNL A   1      11.275  18.320  41.310  1.00  0.00    +0.000 N 
BRANCH   19    2
ATOM      1  O1  UNL A   1      13.431  18.673  40.603  1.00  0.00    +0.000 O 
ATOM      2  C1  UNL A   1      12.251  19.012  40.628  1.00  0.00    +0.000 C 
BRANCH    2    3
ATOM      3  C2  UNL A   1      11.780  20.304  39.944  1.00  0.00    +0.000 C 
ATOM     92  H1  UNL A   1      11.334  20.933  40.687  1.00  0.00    +0.000 H 
ATOM     93  H2  UNL A   1      11.091  20.013  39.179  1.00  0.00    +0.000 H 
BRANCH    3    4
ATOM      4  N1  UNL A   1      12.842  21.057  39.286  1.00  0.00    +0.000 N 
ATOM     94  H3  UNL A   1      13.091  20.742  38.388  1.00  0.00    +0.000 H 
BRANCH    4    5
ATOM      5  C3  UNL A   1      13.540  22.137  39.743  1.00  0.00    +0.000 C 
ATOM      6  O2  UNL A   1      14.425  22.604  39.025  1.00  0.00    +0.000 O 
BRANCH    5    7
ATOM     95  H4  UNL A   1      13.789  22.326  41.863  1.00  0.00    +0.000 H 
ATOM      7  C4  UNL A   1      13.192  22.768  41.092  1.00  0.00    +0.000 C 
ATOM     96  H5  UNL A   1      12.159  22.603  41.319  1.00  0.00    +0.000 H 
BRANCH    7    8
ATOM     97  H6  UNL A   1      13.650  24.557  40.126  1.00  0.00    +0.000 H 
ATOM      8  N2  UNL A   1      13.464  24.189  41.019  1.00  0.00    +0.000 N 
BRANCH    8    9
ATOM      9  C5  UNL A   1      13.487  25.067  42.056  1.00  0.00    +0.000 C 
ATOM     10  O3  UNL A   1      12.655  24.991  42.949  1.00  0.00    +0.000 O 
BRANCH    9   11
ATOM     11  O4  UNL A   1      14.501  25.960  41.989  1.00  0.00    +0.000 O 
BRANCH   11   12
ATOM     98  H7  UNL A   1      16.034  25.340  43.203  1.00  0.00    +0.000 H 
ATOM     99  H8  UNL A   1      14.612  25.986  44.026  1.00  0.00    +0.000 H 
ATOM     12  C6  UNL A   1      15.275  26.094  43.193  1.00  0.00    +0.000 C 
BRANCH   12   13
ATOM    100  H9  UNL A   1      14.411  28.474  42.243  1.00  0.00    +0.000 H 
ATOM    101  H10 UNL A   1      15.513  30.628  42.269  1.00  0.00    +0.000 H 
ATOM    102  H11 UNL A   1      17.655  30.880  43.380  1.00  0.00    +0.000 H 
ATOM    103  H12 UNL A   1      18.695  28.969  44.451  1.00  0.00    +0.000 H 
ATOM    104  H13 UNL A   1      17.626  26.794  44.373  1.00  0.00    +0.000 H 
ATOM     13  C7  UNL A   1      15.932  27.449  43.292  1.00  0.00    +0.000 C 
ATOM     14  C8  UNL A   1      15.330  28.571  42.701  1.00  0.00    +0.000 C 
ATOM     15  C9  UNL A   1      15.959  29.815  42.723  1.00  0.00    +0.000 C 
ATOM     16  C10 UNL A   1      17.188  29.959  43.359  1.00  0.00    +0.000 C 
ATOM     17  C11 UNL A   1      17.789  28.858  43.969  1.00  0.00    +0.000 C 
ATOM     18  C12 UNL A   1      17.169  27.607  43.930  1.00  0.00    +0.000 C 
ENDBRANCH   12   13
ENDBRANCH   11   12
ENDBRANCH    9   11
ENDBRANCH    8    9
ENDBRANCH    7    8
ENDBRANCH    5    7
ENDBRANCH    4    5
ENDBRANCH    3    4
ENDBRANCH    2    3
ENDBRANCH   19    2
ENDBRANCH   20   19
ENDBRANCH   21   20
ENDBRANCH   22   21
ENDBRANCH   23   22
ENDBRANCH   24   23
ENDBRANCH   25   24
ENDBRANCH   26   25
ENDBRANCH   27   26
ENDBRANCH   29   27
ENDBRANCH   33   32
BRANCH   37   38
ATOM     38  C28 UNL A   1       6.217   6.396  38.169  1.00  0.00    +0.000 C 
ATOM     39  C29 UNL A   1       7.301   6.777  37.364  1.00  0.00    +0.000 C 
ATOM     40  F1  UNL A   1       7.087   7.354  36.171  1.00  0.00    +0.000 F 
ATOM     41  C30 UNL A   1       8.613   6.535  37.766  1.00  0.00    +0.000 C 
ATOM     42  F2  UNL A   1       9.630   6.868  36.960  1.00  0.00    +0.000 F 
ATOM     43  C31 UNL A   1       8.866   5.941  38.992  1.00  0.00    +0.000 C 
ATOM     44  F3  UNL A   1      10.129   5.718  39.382  1.00  0.00    +0.000 F 
ATOM     45  C32 UNL A   1       7.810   5.573  39.813  1.00  0.00    +0.000 C 
ATOM     46  F4  UNL A   1       8.055   5.011  41.005  1.00  0.00    +0.000 F 
ATOM     47  C33 UNL A   1       6.498   5.787  39.401  1.00  0.00    +0.000 C 
ATOM     48  F5  UNL A   1       5.498   5.409  40.212  1.00  0.00    +0.000 F 
ENDBRANCH   37   38
BRANCH   54   55
ATOM     65  F10 UNL A   1      -0.474   2.388  37.275  1.00  0.00    +0.000 F 
ATOM     55  C39 UNL A   1       0.682   2.833  35.242  1.00  0.00    +0.000 C 
ATOM     56  C40 UNL A   1       1.125   2.338  34.008  1.00  0.00    +0.000 C 
ATOM     57  F6  UNL A   1       1.799   3.135  33.163  1.00  0.00    +0.000 F 
ATOM     58  C41 UNL A   1       0.846   1.030  33.620  1.00  0.00    +0.000 C 
ATOM     59  F7  UNL A   1       1.243   0.591  32.417  1.00  0.00    +0.000 F 
ATOM     60  C42 UNL A   1       0.149   0.185  34.471  1.00  0.00    +0.000 C 
ATOM     61  F8  UNL A   1      -0.111  -1.076  34.099  1.00  0.00    +0.000 F 
ATOM     62  C43 UNL A   1      -0.285   0.650  35.703  1.00  0.00    +0.000 C 
ATOM     63  F9  UNL A   1      -0.948  -0.170  36.531  1.00  0.00    +0.000 F 
ATOM     64  C44 UNL A   1      -0.033   1.965  36.081  1.00  0.00    +0.000 C 
ENDBRANCH   54   55
BRANCH   69   70
ATOM     70  C48 UNL A   1      -3.065   8.707  35.322  1.00  0.00    +0.000 C 
ATOM     71  C49 UNL A   1      -4.186   8.386  36.099  1.00  0.00    +0.000 C 
ATOM     72  F11 UNL A   1      -4.029   7.758  37.274  1.00  0.00    +0.000 F 
ATOM     73  C50 UNL A   1      -5.476   8.667  35.654  1.00  0.00    +0.000 C 
ATOM     74  F12 UNL A   1      -6.532   8.305  36.394  1.00  0.00    +0.000 F 
ATOM     75  C51 UNL A   1      -5.668   9.302  34.436  1.00  0.00    +0.000 C 
ATOM     76  F13 UNL A   1      -6.908   9.572  34.007  1.00  0.00    +0.000 F 
ATOM     77  C52 UNL A   1      -4.572   9.648  33.659  1.00  0.00    +0.000 C 
ATOM     78  F14 UNL A   1      -4.753  10.273  32.488  1.00  0.00    +0.000 F 
ATOM     79  C53 UNL A   1      -3.283   9.342  34.092  1.00  0.00    +0.000 C 
ATOM     80  F15 UNL A   1      -2.243   9.673  33.312  1.00  0.00    +0.000 F 
ENDBRANCH   69   70
TORSDOF 23
ENDMDL
MODEL 9
REMARK VINA RESULT:      -9.3     45.377     50.566
ROOT
ATOM    129  H38 UNL A   1      15.179  46.946   0.397  1.00  0.00    +0.000 H 
ATOM    130  H39 UNL A   1      13.276  47.049   2.107  1.00  0.00    +0.000 H 
ATOM     33  C24 UNL A   1      13.115  49.533   3.495  1.00  0.00    +0.000 C 
ATOM     34  C25 UNL A   1      14.022  49.178   2.349  1.00  0.00    +0.000 C 
ATOM     35  N5  UNL A   1      14.917  49.914   1.741  1.00  0.00    +0.000 N 
ATOM     36  C26 UNL A   1      15.504  49.088   0.790  1.00  0.00    +0.000 C 
ATOM     37  C27 UNL A   1      16.447  49.397  -0.131  1.00  0.00    +0.000 C 
ATOM     49  C34 UNL A   1      17.027  50.704  -0.292  1.00  0.00    +0.000 C 
ATOM     50  C35 UNL A   1      17.946  51.130  -1.235  1.00  0.00    +0.000 C 
ATOM     51  C36 UNL A   1      18.247  52.471  -0.979  1.00  0.00    +0.000 C 
ATOM     52  C37 UNL A   1      17.479  52.895   0.093  1.00  0.00    +0.000 C 
ATOM     53  N6  UNL A   1      16.739  51.799   0.509  1.00  0.00    +0.000 N 
ATOM     54  C38 UNL A   1      17.423  54.201   0.695  1.00  0.00    +0.000 C 
ATOM     66  C45 UNL A   1      16.642  54.537   1.751  1.00  0.00    +0.000 C 
ATOM     67  N7  UNL A   1      15.743  53.749   2.455  1.00  0.00    +0.000 N 
ATOM     68  C46 UNL A   1      15.241  54.522   3.388  1.00  0.00    +0.000 C 
ATOM     69  C47 UNL A   1      14.193  54.205   4.422  1.00  0.00    +0.000 C 
ATOM     81  C54 UNL A   1      13.631  52.982   4.439  1.00  0.00    +0.000 C 
ATOM     82  C55 UNL A   1      12.609  52.532   5.379  1.00  0.00    +0.000 C 
ATOM     83  C56 UNL A   1      12.332  51.240   5.141  1.00  0.00    +0.000 C 
ATOM     84  C57 UNL A   1      13.131  50.780   4.004  1.00  0.00    +0.000 C 
ATOM     85  N8  UNL A   1      13.858  51.887   3.641  1.00  0.00    +0.000 N 
ATOM     86  C58 UNL A   1      15.794  55.884   3.400  1.00  0.00    +0.000 C 
ATOM     87  C59 UNL A   1      16.611  55.852   2.357  1.00  0.00    +0.000 C 
ATOM     88  C60 UNL A   1      14.895  47.782   0.931  1.00  0.00    +0.000 C 
ATOM     89  C61 UNL A   1      13.926  47.802   1.835  1.00  0.00    +0.000 C 
ATOM    121  H30 UNL A   1      18.343  50.556  -1.996  1.00  0.00    +0.000 H 
ATOM    122  H31 UNL A   1      18.927  53.048  -1.500  1.00  0.00    +0.000 H 
ATOM    123  H32 UNL A   1      16.104  51.798   1.261  1.00  0.00    +0.000 H 
ATOM    124  H33 UNL A   1      12.170  53.114   6.109  1.00  0.00    +0.000 H 
ATOM    125  H34 UNL A   1      11.663  50.663   5.674  1.00  0.00    +0.000 H 
ATOM    126  H35 UNL A   1      14.484  51.895   2.880  1.00  0.00    +0.000 H 
ATOM    127  H36 UNL A   1      15.599  56.660   4.051  1.00  0.00    +0.000 H 
ATOM    128  H37 UNL A   1      17.157  56.661   2.020  1.00  0.00    +0.000 H 
ENDROOT
BRANCH   33   32
ATOM    131  H40 UNL A   1      13.834  47.645   5.254  1.00  0.00    +0.000 H 
ATOM    132  H41 UNL A   1      12.485  45.883   6.228  1.00  0.00    +0.000 H 
ATOM    119  H28 UNL A   1       9.085  47.393   4.266  1.00  0.00    +0.000 H 
ATOM    120  H29 UNL A   1      10.474  49.018   3.116  1.00  0.00    +0.000 H 
ATOM     90  C62 UNL A   1      12.829  47.581   5.027  1.00  0.00    +0.000 C 
ATOM     91  C63 UNL A   1      12.046  46.595   5.623  1.00  0.00    +0.000 C 
ATOM     29  C20 UNL A   1      10.668  46.570   5.399  1.00  0.00    +0.000 C 
ATOM     30  C21 UNL A   1      10.094  47.445   4.471  1.00  0.00    +0.000 C 
ATOM     31  C22 UNL A   1      10.893  48.390   3.820  1.00  0.00    +0.000 C 
ATOM     32  C23 UNL A   1      12.261  48.490   4.120  1.00  0.00    +0.000 C 
BRANCH   29   27
ATOM     27  C19 UNL A   1       9.791  45.618   6.118  1.00  0.00    +0.000 C 
ATOM     28  O5  UNL A   1      10.215  44.501   6.403  1.00  0.00    +0.000 O 
BRANCH   27   26
ATOM     26  N4  UNL A   1       8.505  45.972   6.445  1.00  0.00    +0.000 N 
ATOM    118  H27 UNL A   1       8.126  46.709   5.915  1.00  0.00    +0.000 H 
BRANCH   26   25
ATOM     25  C18 UNL A   1       7.617  45.418   7.457  1.00  0.00    +0.000 C 
ATOM    116  H25 UNL A   1       6.632  45.344   7.045  1.00  0.00    +0.000 H 
ATOM    117  H26 UNL A   1       8.004  44.461   7.735  1.00  0.00    +0.000 H 
BRANCH   25   24
ATOM    114  H23 UNL A   1       6.899  47.097   8.528  1.00  0.00    +0.000 H 
ATOM    115  H24 UNL A   1       7.211  45.625   9.499  1.00  0.00    +0.000 H 
ATOM     24  C17 UNL A   1       7.554  46.273   8.719  1.00  0.00    +0.000 C 
BRANCH   24   23
ATOM    113  H22 UNL A   1       9.602  46.577   8.436  1.00  0.00    +0.000 H 
ATOM     23  C16 UNL A   1       8.893  46.835   9.193  1.00  0.00    +0.000 C 
ATOM    112  H21 UNL A   1       9.107  46.409  10.152  1.00  0.00    +0.000 H 
BRANCH   23   22
ATOM    110  H19 UNL A   1       7.974  48.711   9.543  1.00  0.00    +0.000 H 
ATOM     22  C15 UNL A   1       8.962  48.357   9.329  1.00  0.00    +0.000 C 
ATOM    111  H20 UNL A   1       9.674  48.541  10.106  1.00  0.00    +0.000 H 
BRANCH   22   21
ATOM    109  H18 UNL A   1       9.121  50.129   8.212  1.00  0.00    +0.000 H 
ATOM    108  H17 UNL A   1       9.117  48.636   7.228  1.00  0.00    +0.000 H 
ATOM     21  C14 UNL A   1       9.480  49.126   8.107  1.00  0.00    +0.000 C 
BRANCH   21   20
ATOM    106  H15 UNL A   1      11.407  48.235   8.000  1.00  0.00    +0.000 H 
ATOM    107  H16 UNL A   1      11.225  49.753   7.100  1.00  0.00    +0.000 H 
ATOM     20  C13 UNL A   1      11.001  49.225   8.003  1.00  0.00    +0.000 C 
BRANCH   20   19
ATOM    105  H14 UNL A   1      11.216  49.869   9.997  1.00  0.00    +0.000 H 
ATOM     19  N3  UNL A   1      11.601  49.965   9.096  1.00  0.00    +0.000 N 
BRANCH   19    2
ATOM      1  O1  UNL A   1      13.610  50.559   8.155  1.00  0.00    +0.000 O 
ATOM      2  C1  UNL A   1      12.684  50.798   8.927  1.00  0.00    +0.000 C 
BRANCH    2    3
ATOM      3  C2  UNL A   1      12.705  52.037   9.833  1.00  0.00    +0.000 C 
ATOM     92  H1  UNL A   1      11.974  51.900  10.604  1.00  0.00    +0.000 H 
ATOM     93  H2  UNL A   1      12.496  52.879   9.208  1.00  0.00    +0.000 H 
BRANCH    3    4
ATOM      4  N1  UNL A   1      13.994  52.296  10.466  1.00  0.00    +0.000 N 
ATOM     94  H3  UNL A   1      14.566  52.953  10.009  1.00  0.00    +0.000 H 
BRANCH    4    5
ATOM      5  C3  UNL A   1      14.517  51.754  11.605  1.00  0.00    +0.000 C 
ATOM      6  O2  UNL A   1      13.764  51.572  12.562  1.00  0.00    +0.000 O 
BRANCH    5    7
ATOM     95  H4  UNL A   1      16.093  50.435  12.212  1.00  0.00    +0.000 H 
ATOM      7  C4  UNL A   1      15.990  51.347  11.660  1.00  0.00    +0.000 C 
ATOM     96  H5  UNL A   1      16.563  52.109  12.145  1.00  0.00    +0.000 H 
BRANCH    7    8
ATOM     97  H6  UNL A   1      16.373  51.919   9.693  1.00  0.00    +0.000 H 
ATOM      8  N2  UNL A   1      16.465  51.154  10.306  1.00  0.00    +0.000 N 
BRANCH    8    9
ATOM      9  C5  UNL A   1      17.026  50.027   9.793  1.00  0.00    +0.000 C 
ATOM     10  O3  UNL A   1      18.135  49.667  10.160  1.00  0.00    +0.000 O 
BRANCH    9   11
ATOM     11  O4  UNL A   1      16.237  49.385   8.902  1.00  0.00    +0.000 O 
BRANCH   11   12
ATOM     98  H7  UNL A   1      16.852  47.660   9.825  1.00  0.00    +0.000 H 
ATOM     99  H8  UNL A   1      16.317  47.490   8.151  1.00  0.00    +0.000 H 
ATOM     12  C6  UNL A   1      16.134  47.964   9.092  1.00  0.00    +0.000 C 
BRANCH   12   13
ATOM    100  H9  UNL A   1      14.889  48.545  11.422  1.00  0.00    +0.000 H 
ATOM    101  H10 UNL A   1      12.744  47.787  12.246  1.00  0.00    +0.000 H 
ATOM    102  H11 UNL A   1      11.330  46.400  10.847  1.00  0.00    +0.000 H 
ATOM    103  H12 UNL A   1      12.074  45.763   8.628  1.00  0.00    +0.000 H 
ATOM    104  H13 UNL A   1      14.250  46.465   7.822  1.00  0.00    +0.000 H 
ATOM     13  C7  UNL A   1      14.757  47.557   9.559  1.00  0.00    +0.000 C 
ATOM     14  C8  UNL A   1      14.300  47.940  10.830  1.00  0.00    +0.000 C 
ATOM     15  C9  UNL A   1      13.060  47.512  11.303  1.00  0.00    +0.000 C 
ATOM     16  C10 UNL A   1      12.250  46.715  10.501  1.00  0.00    +0.000 C 
ATOM     17  C11 UNL A   1      12.682  46.343   9.227  1.00  0.00    +0.000 C 
ATOM     18  C12 UNL A   1      13.933  46.755   8.761  1.00  0.00    +0.000 C 
ENDBRANCH   12   13
ENDBRANCH   11   12
ENDBRANCH    9   11
ENDBRANCH    8    9
ENDBRANCH    7    8
ENDBRANCH    5    7
ENDBRANCH    4    5
ENDBRANCH    3    4
ENDBRANCH    2    3
ENDBRANCH   19    2
ENDBRANCH   20   19
ENDBRANCH   21   20
ENDBRANCH   22   21
ENDBRANCH   23   22
ENDBRANCH   24   23
ENDBRANCH   25   24
ENDBRANCH   26   25
ENDBRANCH   27   26
ENDBRANCH   29   27
ENDBRANCH   33   32
BRANCH   37   38
ATOM     38  C28 UNL A   1      16.912  48.301  -1.045  1.00  0.00    +0.000 C 
ATOM     39  C29 UNL A   1      16.229  47.994  -2.232  1.00  0.00    +0.000 C 
ATOM     40  F1  UNL A   1      15.100  48.647  -2.549  1.00  0.00    +0.000 F 
ATOM     41  C30 UNL A   1      16.685  46.991  -3.083  1.00  0.00    +0.000 C 
ATOM     42  F2  UNL A   1      15.991  46.686  -4.188  1.00  0.00    +0.000 F 
ATOM     43  C31 UNL A   1      17.848  46.299  -2.783  1.00  0.00    +0.000 C 
ATOM     44  F3  UNL A   1      18.291  45.340  -3.608  1.00  0.00    +0.000 F 
ATOM     45  C32 UNL A   1      18.550  46.598  -1.624  1.00  0.00    +0.000 C 
ATOM     46  F4  UNL A   1      19.682  45.940  -1.340  1.00  0.00    +0.000 F 
ATOM     47  C33 UNL A   1      18.081  47.581  -0.757  1.00  0.00    +0.000 C 
ATOM     48  F5  UNL A   1      18.776  47.839   0.361  1.00  0.00    +0.000 F 
ENDBRANCH   37   38
BRANCH   54   55
ATOM     65  F10 UNL A   1      16.844  55.423  -1.802  1.00  0.00    +0.000 F 
ATOM     55  C39 UNL A   1      18.275  55.282   0.095  1.00  0.00    +0.000 C 
ATOM     56  C40 UNL A   1      19.439  55.741   0.728  1.00  0.00    +0.000 C 
ATOM     57  F6  UNL A   1      19.789  55.257   1.930  1.00  0.00    +0.000 F 
ATOM     58  C41 UNL A   1      20.229  56.727   0.144  1.00  0.00    +0.000 C 
ATOM     59  F7  UNL A   1      21.314  57.182   0.786  1.00  0.00    +0.000 F 
ATOM     60  C42 UNL A   1      19.890  57.248  -1.096  1.00  0.00    +0.000 C 
ATOM     61  F8  UNL A   1      20.656  58.191  -1.661  1.00  0.00    +0.000 F 
ATOM     62  C43 UNL A   1      18.751  56.797  -1.747  1.00  0.00    +0.000 C 
ATOM     63  F9  UNL A   1      18.429  57.290  -2.951  1.00  0.00    +0.000 F 
ATOM     64  C44 UNL A   1      17.944  55.832  -1.152  1.00  0.00    +0.000 C 
ENDBRANCH   54   55
BRANCH   69   70
ATOM     70  C48 UNL A   1      13.761  55.236   5.402  1.00  0.00    +0.000 C 
ATOM     71  C49 UNL A   1      14.213  55.199   6.729  1.00  0.00    +0.000 C 
ATOM     72  F11 UNL A   1      15.040  54.220   7.127  1.00  0.00    +0.000 F 
ATOM     73  C50 UNL A   1      13.783  56.139   7.663  1.00  0.00    +0.000 C 
ATOM     74  F12 UNL A   1      14.191  56.050   8.935  1.00  0.00    +0.000 F 
ATOM     75  C51 UNL A   1      12.916  57.152   7.282  1.00  0.00    +0.000 C 
ATOM     76  F13 UNL A   1      12.502  58.055   8.180  1.00  0.00    +0.000 F 
ATOM     77  C52 UNL A   1      12.473  57.222   5.970  1.00  0.00    +0.000 C 
ATOM     78  F14 UNL A   1      11.646  58.207   5.594  1.00  0.00    +0.000 F 
ATOM     79  C53 UNL A   1      12.881  56.265   5.041  1.00  0.00    +0.000 C 
ATOM     80  F15 UNL A   1      12.423  56.348   3.783  1.00  0.00    +0.000 F 
ENDBRANCH   69   70
TORSDOF 23
ENDMDL
MODEL 10
REMARK VINA RESULT:      -9.3     40.072     46.743
ROOT
ATOM    129  H38 UNL A   1      29.044  34.705  43.157  1.00  0.00    +0.000 H 
ATOM    130  H39 UNL A   1      26.588  34.925  43.844  1.00  0.00    +0.000 H 
ATOM     33  C24 UNL A   1      26.119  36.958  45.786  1.00  0.00    +0.000 C 
ATOM     34  C25 UNL A   1      27.407  36.646  45.074  1.00  0.00    +0.000 C 
ATOM     35  N5  UNL A   1      28.575  37.227  45.181  1.00  0.00    +0.000 N 
ATOM     36  C26 UNL A   1      29.428  36.518  44.344  1.00  0.00    +0.000 C 
ATOM     37  C27 UNL A   1      30.729  36.762  44.062  1.00  0.00    +0.000 C 
ATOM     49  C34 UNL A   1      31.487  37.858  44.607  1.00  0.00    +0.000 C 
ATOM     50  C35 UNL A   1      32.795  38.222  44.336  1.00  0.00    +0.000 C 
ATOM     51  C36 UNL A   1      33.114  39.328  45.129  1.00  0.00    +0.000 C 
ATOM     52  C37 UNL A   1      31.991  39.683  45.858  1.00  0.00    +0.000 C 
ATOM     53  N6  UNL A   1      31.002  38.769  45.532  1.00  0.00    +0.000 N 
ATOM     54  C38 UNL A   1      31.831  40.775  46.783  1.00  0.00    +0.000 C 
ATOM     66  C45 UNL A   1      30.693  41.056  47.463  1.00  0.00    +0.000 C 
ATOM     67  N7  UNL A   1      29.468  40.405  47.419  1.00  0.00    +0.000 N 
ATOM     68  C46 UNL A   1      28.689  41.044  48.258  1.00  0.00    +0.000 C 
ATOM     69  C47 UNL A   1      27.242  40.796  48.589  1.00  0.00    +0.000 C 
ATOM     81  C54 UNL A   1      26.581  39.807  47.957  1.00  0.00    +0.000 C 
ATOM     82  C55 UNL A   1      25.182  39.450  48.175  1.00  0.00    +0.000 C 
ATOM     83  C56 UNL A   1      24.881  38.379  47.424  1.00  0.00    +0.000 C 
ATOM     84  C57 UNL A   1      26.057  37.996  46.642  1.00  0.00    +0.000 C 
ATOM     85  N8  UNL A   1      27.012  38.912  47.010  1.00  0.00    +0.000 N 
ATOM     86  C58 UNL A   1      29.348  42.158  48.956  1.00  0.00    +0.000 C 
ATOM     87  C59 UNL A   1      30.553  42.147  48.404  1.00  0.00    +0.000 C 
ATOM     88  C60 UNL A   1      28.655  35.437  43.770  1.00  0.00    +0.000 C 
ATOM     89  C61 UNL A   1      27.384  35.511  44.138  1.00  0.00    +0.000 C 
ATOM    121  H30 UNL A   1      33.426  37.756  43.665  1.00  0.00    +0.000 H 
ATOM    122  H31 UNL A   1      34.032  39.800  45.166  1.00  0.00    +0.000 H 
ATOM    123  H32 UNL A   1      30.090  38.767  45.904  1.00  0.00    +0.000 H 
ATOM    124  H33 UNL A   1      24.530  39.943  48.805  1.00  0.00    +0.000 H 
ATOM    125  H34 UNL A   1      23.967  37.901  47.403  1.00  0.00    +0.000 H 
ATOM    126  H35 UNL A   1      27.921  38.925  46.630  1.00  0.00    +0.000 H 
ATOM    127  H36 UNL A   1      28.972  42.782  49.686  1.00  0.00    +0.000 H 
ATOM    128  H37 UNL A   1      31.298  42.829  48.618  1.00  0.00    +0.000 H 
ENDROOT
BRANCH   33   32
ATOM    131  H40 UNL A   1      24.124  37.209  44.016  1.00  0.00    +0.000 H 
ATOM    132  H41 UNL A   1      22.144  35.835  43.754  1.00  0.00    +0.000 H 
ATOM    119  H28 UNL A   1      23.533  33.246  46.763  1.00  0.00    +0.000 H 
ATOM    120  H29 UNL A   1      25.400  34.740  47.182  1.00  0.00    +0.000 H 
ATOM     90  C62 UNL A   1      23.991  36.378  44.615  1.00  0.00    +0.000 C 
ATOM     91  C63 UNL A   1      22.874  35.565  44.432  1.00  0.00    +0.000 C 
ATOM     29  C20 UNL A   1      22.743  34.386  45.168  1.00  0.00    +0.000 C 
ATOM     30  C21 UNL A   1      23.657  34.091  46.184  1.00  0.00    +0.000 C 
ATOM     31  C22 UNL A   1      24.740  34.944  46.415  1.00  0.00    +0.000 C 
ATOM     32  C23 UNL A   1      24.936  36.076  45.607  1.00  0.00    +0.000 C 
BRANCH   29   27
ATOM     27  C19 UNL A   1      21.638  33.437  44.905  1.00  0.00    +0.000 C 
ATOM     28  O5  UNL A   1      20.672  33.801  44.241  1.00  0.00    +0.000 O 
BRANCH   27   26
ATOM     26  N4  UNL A   1      21.680  32.164  45.420  1.00  0.00    +0.000 N 
ATOM    118  H27 UNL A   1      21.524  32.099  46.389  1.00  0.00    +0.000 H 
BRANCH   26   25
ATOM     25  C18 UNL A   1      21.919  30.896  44.746  1.00  0.00    +0.000 C 
ATOM    116  H25 UNL A   1      21.702  31.016  43.704  1.00  0.00    +0.000 H 
ATOM    117  H26 UNL A   1      22.943  30.632  44.910  1.00  0.00    +0.000 H 
BRANCH   25   24
ATOM    114  H23 UNL A   1      21.578  28.843  45.130  1.00  0.00    +0.000 H 
ATOM    115  H24 UNL A   1      20.902  29.986  46.331  1.00  0.00    +0.000 H 
ATOM     24  C17 UNL A   1      21.058  29.763  45.296  1.00  0.00    +0.000 C 
BRANCH   24   23
ATOM    113  H22 UNL A   1      19.163  28.885  45.240  1.00  0.00    +0.000 H 
ATOM     23  C16 UNL A   1      19.669  29.639  44.675  1.00  0.00    +0.000 C 
ATOM    112  H21 UNL A   1      19.792  29.396  43.639  1.00  0.00    +0.000 H 
BRANCH   23   22
ATOM    110  H19 UNL A   1      18.530  31.031  45.793  1.00  0.00    +0.000 H 
ATOM     22  C15 UNL A   1      18.789  30.887  44.764  1.00  0.00    +0.000 C 
ATOM    111  H20 UNL A   1      19.372  31.677  44.341  1.00  0.00    +0.000 H 
BRANCH   22   21
ATOM    109  H18 UNL A   1      17.773  30.720  42.933  1.00  0.00    +0.000 H 
ATOM    108  H17 UNL A   1      16.969  31.780  44.127  1.00  0.00    +0.000 H 
ATOM     21  C14 UNL A   1      17.486  30.860  43.954  1.00  0.00    +0.000 C 
BRANCH   21   20
ATOM    106  H15 UNL A   1      17.105  28.805  44.343  1.00  0.00    +0.000 H 
ATOM    107  H16 UNL A   1      16.076  29.946  45.230  1.00  0.00    +0.000 H 
ATOM     20  C13 UNL A   1      16.538  29.711  44.294  1.00  0.00    +0.000 C 
BRANCH   20   19
ATOM    105  H14 UNL A   1      14.564  29.812  43.566  1.00  0.00    +0.000 H 
ATOM     19  N3  UNL A   1      15.478  29.539  43.320  1.00  0.00    +0.000 N 
BRANCH   19    2
ATOM      1  O1  UNL A   1      16.092  29.669  41.112  1.00  0.00    +0.000 O 
ATOM      2  C1  UNL A   1      15.694  29.009  42.068  1.00  0.00    +0.000 C 
BRANCH    2    3
ATOM      3  C2  UNL A   1      15.330  27.525  41.914  1.00  0.00    +0.000 C 
ATOM     92  H1  UNL A   1      14.474  27.325  42.525  1.00  0.00    +0.000 H 
ATOM     93  H2  UNL A   1      16.192  26.965  42.211  1.00  0.00    +0.000 H 
BRANCH    3    4
ATOM      4  N1  UNL A   1      15.019  27.123  40.547  1.00  0.00    +0.000 N 
ATOM     94  H3  UNL A   1      15.308  27.749  39.844  1.00  0.00    +0.000 H 
BRANCH    4    5
ATOM      5  C3  UNL A   1      14.384  25.998  40.105  1.00  0.00    +0.000 C 
ATOM      6  O2  UNL A   1      13.549  25.474  40.843  1.00  0.00    +0.000 O 
BRANCH    5    7
ATOM     95  H4  UNL A   1      15.310  26.119  38.178  1.00  0.00    +0.000 H 
ATOM      7  C4  UNL A   1      14.678  25.441  38.712  1.00  0.00    +0.000 C 
ATOM     96  H5  UNL A   1      13.766  25.318  38.166  1.00  0.00    +0.000 H 
BRANCH    7    8
ATOM     97  H6  UNL A   1      16.188  24.162  39.366  1.00  0.00    +0.000 H 
ATOM      8  N2  UNL A   1      15.345  24.164  38.858  1.00  0.00    +0.000 N 
BRANCH    8    9
ATOM      9  C5  UNL A   1      14.928  22.967  38.368  1.00  0.00    +0.000 C 
ATOM     10  O3  UNL A   1      15.688  22.270  37.711  1.00  0.00    +0.000 O 
BRANCH    9   11
ATOM     11  O4  UNL A   1      13.656  22.656  38.704  1.00  0.00    +0.000 O 
BRANCH   11   12
ATOM     98  H7  UNL A   1      12.775  22.881  40.542  1.00  0.00    +0.000 H 
ATOM     99  H8  UNL A   1      14.424  22.251  40.550  1.00  0.00    +0.000 H 
ATOM     12  C6  UNL A   1      13.472  22.226  40.063  1.00  0.00    +0.000 C 
BRANCH   12   13
ATOM    100  H9  UNL A   1      12.329  20.951  42.157  1.00  0.00    +0.000 H 
ATOM    101  H10 UNL A   1      11.608  18.649  42.345  1.00  0.00    +0.000 H 
ATOM    102  H11 UNL A   1      11.749  17.175  40.424  1.00  0.00    +0.000 H 
ATOM    103  H12 UNL A   1      12.626  18.007  38.321  1.00  0.00    +0.000 H 
ATOM    104  H13 UNL A   1      13.411  20.295  38.146  1.00  0.00    +0.000 H 
ATOM     13  C7  UNL A   1      12.945  20.813  40.141  1.00  0.00    +0.000 C 
ATOM     14  C8  UNL A   1      12.409  20.324  41.343  1.00  0.00    +0.000 C 
ATOM     15  C9  UNL A   1      11.984  19.000  41.450  1.00  0.00    +0.000 C 
ATOM     16  C10 UNL A   1      12.067  18.155  40.348  1.00  0.00    +0.000 C 
ATOM     17  C11 UNL A   1      12.578  18.632  39.141  1.00  0.00    +0.000 C 
ATOM     18  C12 UNL A   1      13.022  19.952  39.039  1.00  0.00    +0.000 C 
ENDBRANCH   12   13
ENDBRANCH   11   12
ENDBRANCH    9   11
ENDBRANCH    8    9
ENDBRANCH    7    8
ENDBRANCH    5    7
ENDBRANCH    4    5
ENDBRANCH    3    4
ENDBRANCH    2    3
ENDBRANCH   19    2
ENDBRANCH   20   19
ENDBRANCH   21   20
ENDBRANCH   22   21
ENDBRANCH   23   22
ENDBRANCH   24   23
ENDBRANCH   25   24
ENDBRANCH   26   25
ENDBRANCH   27   26
ENDBRANCH   29   27
ENDBRANCH   33   32
BRANCH   37   38
ATOM     38  C28 UNL A   1      31.423  35.827  43.115  1.00  0.00    +0.000 C 
ATOM     39  C29 UNL A   1      31.498  36.096  41.740  1.00  0.00    +0.000 C 
ATOM     40  F1  UNL A   1      30.894  37.181  41.230  1.00  0.00    +0.000 F 
ATOM     41  C30 UNL A   1      32.164  35.231  40.875  1.00  0.00    +0.000 C 
ATOM     42  F2  UNL A   1      32.184  35.487  39.559  1.00  0.00    +0.000 F 
ATOM     43  C31 UNL A   1      32.797  34.102  41.371  1.00  0.00    +0.000 C 
ATOM     44  F3  UNL A   1      33.447  33.276  40.539  1.00  0.00    +0.000 F 
ATOM     45  C32 UNL A   1      32.753  33.826  42.730  1.00  0.00    +0.000 C 
ATOM     46  F4  UNL A   1      33.376  32.742  43.212  1.00  0.00    +0.000 F 
ATOM     47  C33 UNL A   1      32.062  34.673  43.593  1.00  0.00    +0.000 C 
ATOM     48  F5  UNL A   1      32.027  34.372  44.900  1.00  0.00    +0.000 F 
ENDBRANCH   37   38
BRANCH   54   55
ATOM     65  F10 UNL A   1      32.137  43.245  45.417  1.00  0.00    +0.000 F 
ATOM     55  C39 UNL A   1      33.004  41.687  46.994  1.00  0.00    +0.000 C 
ATOM     56  C40 UNL A   1      34.047  41.357  47.870  1.00  0.00    +0.000 C 
ATOM     57  F6  UNL A   1      33.989  40.228  48.594  1.00  0.00    +0.000 F 
ATOM     58  C41 UNL A   1      35.139  42.206  48.034  1.00  0.00    +0.000 C 
ATOM     59  F7  UNL A   1      36.104  41.891  48.910  1.00  0.00    +0.000 F 
ATOM     60  C42 UNL A   1      35.224  43.381  47.302  1.00  0.00    +0.000 C 
ATOM     61  F8  UNL A   1      36.280  44.192  47.455  1.00  0.00    +0.000 F 
ATOM     62  C43 UNL A   1      34.211  43.719  46.417  1.00  0.00    +0.000 C 
ATOM     63  F9  UNL A   1      34.298  44.848  45.700  1.00  0.00    +0.000 F 
ATOM     64  C44 UNL A   1      33.105  42.887  46.273  1.00  0.00    +0.000 C 
ENDBRANCH   54   55
BRANCH   69   70
ATOM     70  C48 UNL A   1      26.537  41.646  49.584  1.00  0.00    +0.000 C 
ATOM     71  C49 UNL A   1      26.508  41.290  50.940  1.00  0.00    +0.000 C 
ATOM     72  F11 UNL A   1      27.115  40.166  51.349  1.00  0.00    +0.000 F 
ATOM     73  C50 UNL A   1      25.817  42.060  51.873  1.00  0.00    +0.000 C 
ATOM     74  F12 UNL A   1      25.763  41.669  53.152  1.00  0.00    +0.000 F 
ATOM     75  C51 UNL A   1      25.166  43.218  51.473  1.00  0.00    +0.000 C 
ATOM     76  F13 UNL A   1      24.502  43.958  52.370  1.00  0.00    +0.000 F 
ATOM     77  C52 UNL A   1      25.200  43.602  50.141  1.00  0.00    +0.000 C 
ATOM     78  F14 UNL A   1      24.585  44.728  49.754  1.00  0.00    +0.000 F 
ATOM     79  C53 UNL A   1      25.868  42.817  49.203  1.00  0.00    +0.000 C 
ATOM     80  F15 UNL A   1      25.869  43.205  47.919  1.00  0.00    +0.000 F 
ENDBRANCH   69   70
TORSDOF 23
ENDMDL
