MODEL 1
REMARK VINA RESULT:      -8.7      0.000      0.000
ROOT
ATOM     27  C22 UNL A   1      13.569  53.713   5.007  1.00  0.00    +0.000 C 
ATOM     28  C23 UNL A   1      13.108  52.282   5.015  1.00  0.00    +0.000 C 
ATOM     29  N3  UNL A   1      13.439  51.301   4.213  1.00  0.00    +0.000 N 
ATOM     30  C24 UNL A   1      12.769  50.181   4.687  1.00  0.00    +0.000 C 
ATOM     31  C25 UNL A   1      12.745  48.929   4.170  1.00  0.00    +0.000 C 
ATOM     43  C32 UNL A   1      13.432  48.533   2.969  1.00  0.00    +0.000 C 
ATOM     44  C33 UNL A   1      13.413  47.305   2.329  1.00  0.00    +0.000 C 
ATOM     45  C34 UNL A   1      14.257  47.379   1.216  1.00  0.00    +0.000 C 
ATOM     46  C35 UNL A   1      14.765  48.665   1.137  1.00  0.00    +0.000 C 
ATOM     47  N4  UNL A   1      14.258  49.361   2.223  1.00  0.00    +0.000 N 
ATOM     48  C36 UNL A   1      15.647  49.220   0.145  1.00  0.00    +0.000 C 
ATOM     60  C43 UNL A   1      16.119  50.490   0.150  1.00  0.00    +0.000 C 
ATOM     61  N5  UNL A   1      15.861  51.514   1.052  1.00  0.00    +0.000 N 
ATOM     62  C44 UNL A   1      16.557  52.543   0.637  1.00  0.00    +0.000 C 
ATOM     63  C45 UNL A   1      16.626  53.937   1.204  1.00  0.00    +0.000 C 
ATOM     75  C52 UNL A   1      15.878  54.247   2.279  1.00  0.00    +0.000 C 
ATOM     76  C53 UNL A   1      15.825  55.554   2.927  1.00  0.00    +0.000 C 
ATOM     77  C54 UNL A   1      15.000  55.486   3.984  1.00  0.00    +0.000 C 
ATOM     78  C55 UNL A   1      14.440  54.137   4.070  1.00  0.00    +0.000 C 
ATOM     79  N6  UNL A   1      15.016  53.471   3.016  1.00  0.00    +0.000 N 
ATOM     80  C56 UNL A   1      17.369  52.274  -0.559  1.00  0.00    +0.000 C 
ATOM     81  C57 UNL A   1      17.027  51.026  -0.841  1.00  0.00    +0.000 C 
ATOM     82  C58 UNL A   1      12.044  50.590   5.870  1.00  0.00    +0.000 C 
ATOM     83  C59 UNL A   1      12.169  51.893   6.080  1.00  0.00    +0.000 C 
ATOM    116  H27 UNL A   1      12.869  46.479   2.622  1.00  0.00    +0.000 H 
ATOM    117  H28 UNL A   1      14.466  46.606   0.565  1.00  0.00    +0.000 H 
ATOM    118  H29 UNL A   1      14.454  50.301   2.434  1.00  0.00    +0.000 H 
ATOM    119  H30 UNL A   1      16.340  56.395   2.621  1.00  0.00    +0.000 H 
ATOM    120  H31 UNL A   1      14.794  56.263   4.632  1.00  0.00    +0.000 H 
ATOM    121  H32 UNL A   1      14.829  52.527   2.808  1.00  0.00    +0.000 H 
ATOM    122  H33 UNL A   1      18.031  52.895  -1.050  1.00  0.00    +0.000 H 
ATOM    123  H34 UNL A   1      17.366  50.502  -1.663  1.00  0.00    +0.000 H 
ATOM    124  H35 UNL A   1      11.500  49.951   6.472  1.00  0.00    +0.000 H 
ATOM    125  H36 UNL A   1      11.725  52.481   6.800  1.00  0.00    +0.000 H 
ENDROOT
BRANCH   27   26
ATOM    114  H25 UNL A   1      10.579  56.723   6.845  1.00  0.00    +0.000 H 
ATOM    115  H26 UNL A   1      11.256  55.113   5.160  1.00  0.00    +0.000 H 
ATOM     84  C60 UNL A   1      13.921  54.889   7.186  1.00  0.00    +0.000 C 
ATOM     85  C61 UNL A   1      13.495  55.755   8.193  1.00  0.00    +0.000 C 
ATOM     23  C18 UNL A   1      12.302  56.467   8.042  1.00  0.00    +0.000 C 
ATOM     24  C19 UNL A   1      11.479  56.225   6.939  1.00  0.00    +0.000 C 
ATOM     25  C20 UNL A   1      11.876  55.309   5.961  1.00  0.00    +0.000 C 
ATOM     26  C21 UNL A   1      13.113  54.653   6.064  1.00  0.00    +0.000 C 
ATOM    126  H37 UNL A   1      14.836  54.418   7.267  1.00  0.00    +0.000 H 
ATOM    127  H38 UNL A   1      14.061  55.870   9.048  1.00  0.00    +0.000 H 
BRANCH   23   21
ATOM     21  C17 UNL A   1      11.864  57.461   9.047  1.00  0.00    +0.000 C 
ATOM     22  O3  UNL A   1      11.930  58.659   8.784  1.00  0.00    +0.000 O 
BRANCH   21   20
ATOM    113  H24 UNL A   1      11.936  57.362  11.044  1.00  0.00    +0.000 H 
ATOM     20  N2  UNL A   1      11.407  57.052  10.273  1.00  0.00    +0.000 N 
BRANCH   20   19
ATOM     19  C16 UNL A   1      10.256  56.231  10.602  1.00  0.00    +0.000 C 
ATOM    111  H22 UNL A   1       9.790  56.627  11.481  1.00  0.00    +0.000 H 
ATOM    112  H23 UNL A   1       9.593  56.249   9.762  1.00  0.00    +0.000 H 
BRANCH   19   18
ATOM     18  C15 UNL A   1      10.630  54.775  10.864  1.00  0.00    +0.000 C 
ATOM    109  H20 UNL A   1       9.840  54.327  11.430  1.00  0.00    +0.000 H 
ATOM    110  H21 UNL A   1      10.773  54.329   9.901  1.00  0.00    +0.000 H 
BRANCH   18   17
ATOM     17  C14 UNL A   1      11.940  54.562  11.626  1.00  0.00    +0.000 C 
ATOM    107  H18 UNL A   1      12.314  55.522  11.911  1.00  0.00    +0.000 H 
ATOM    108  H19 UNL A   1      11.697  53.928  12.454  1.00  0.00    +0.000 H 
BRANCH   17   16
ATOM    105  H16 UNL A   1      12.667  52.879  10.556  1.00  0.00    +0.000 H 
ATOM    106  H17 UNL A   1      13.298  54.471  10.032  1.00  0.00    +0.000 H 
ATOM     16  C13 UNL A   1      13.045  53.835  10.853  1.00  0.00    +0.000 C 
BRANCH   16   15
ATOM    103  H14 UNL A   1      15.100  53.301  10.932  1.00  0.00    +0.000 H 
ATOM     15  C12 UNL A   1      14.348  53.609  11.627  1.00  0.00    +0.000 C 
ATOM    104  H15 UNL A   1      14.576  54.534  12.112  1.00  0.00    +0.000 H 
BRANCH   15   14
ATOM    102  H13 UNL A   1      13.446  52.813  13.373  1.00  0.00    +0.000 H 
ATOM    101  H12 UNL A   1      15.184  52.539  13.266  1.00  0.00    +0.000 H 
ATOM     14  C11 UNL A   1      14.260  52.556  12.728  1.00  0.00    +0.000 C 
BRANCH   14   13
ATOM    100  H11 UNL A   1      13.116  50.868  12.378  1.00  0.00    +0.000 H 
ATOM     13  N1  UNL A   1      14.008  51.237  12.185  1.00  0.00    +0.000 N 
BRANCH   13   11
ATOM     11  C10 UNL A   1      14.823  50.431  11.447  1.00  0.00    +0.000 C 
ATOM     12  O2  UNL A   1      16.014  50.377  11.772  1.00  0.00    +0.000 O 
BRANCH   11    9
ATOM      9  C8  UNL A   1      14.297  49.607  10.265  1.00  0.00    +0.000 C 
ATOM     96  H7  UNL A   1      14.677  48.607  10.318  1.00  0.00    +0.000 H 
BRANCH    9    8
ATOM    129  H40 UNL A   1      15.891  52.800   7.238  1.00  0.00    +0.000 H 
ATOM    130  H41 UNL A   1      16.995  52.177   5.127  1.00  0.00    +0.000 H 
ATOM      3  C2  UNL A   1      17.121  50.213   4.379  1.00  0.00    +0.000 C 
ATOM      4  C3  UNL A   1      16.861  48.869   4.637  1.00  0.00    +0.000 C 
ATOM      5  C4  UNL A   1      16.228  48.503   5.827  1.00  0.00    +0.000 C 
ATOM      6  C5  UNL A   1      15.854  49.473   6.769  1.00  0.00    +0.000 C 
ATOM      7  C6  UNL A   1      15.240  49.120   7.983  1.00  0.00    +0.000 C 
ATOM      8  C7  UNL A   1      14.869  50.088   8.937  1.00  0.00    +0.000 C 
ATOM     86  C62 UNL A   1      15.083  51.435   8.626  1.00  0.00    +0.000 C 
ATOM     87  C63 UNL A   1      15.716  51.802   7.434  1.00  0.00    +0.000 C 
ATOM     88  C64 UNL A   1      16.116  50.834   6.503  1.00  0.00    +0.000 C 
ATOM     89  C65 UNL A   1      16.770  51.187   5.313  1.00  0.00    +0.000 C 
ATOM     93  H4  UNL A   1      17.135  48.148   3.952  1.00  0.00    +0.000 H 
ATOM     94  H5  UNL A   1      16.033  47.507   6.015  1.00  0.00    +0.000 H 
ATOM     95  H6  UNL A   1      15.057  48.125   8.181  1.00  0.00    +0.000 H 
ATOM    128  H39 UNL A   1      14.770  52.166   9.285  1.00  0.00    +0.000 H 
BRANCH    3    2
ATOM      2  O1  UNL A   1      17.780  50.639   3.259  1.00  0.00    +0.000 O 
BRANCH    2    1
ATOM      1  C1  UNL A   1      18.684  49.658   2.755  1.00  0.00    +0.000 C 
ATOM     90  H1  UNL A   1      19.405  50.130   2.121  1.00  0.00    +0.000 H 
ATOM     91  H2  UNL A   1      18.140  48.928   2.194  1.00  0.00    +0.000 H 
ATOM     92  H3  UNL A   1      19.183  49.181   3.572  1.00  0.00    +0.000 H 
ENDBRANCH    2    1
ENDBRANCH    3    2
ENDBRANCH    9    8
BRANCH    9   10
ATOM     97  H8  UNL A   1      12.586  48.501  10.923  1.00  0.00    +0.000 H 
ATOM     10  C9  UNL A   1      12.784  49.390  10.362  1.00  0.00    +0.000 C 
ATOM     99  H10 UNL A   1      12.334  50.228  10.852  1.00  0.00    +0.000 H 
ATOM     98  H9  UNL A   1      12.375  49.290   9.378  1.00  0.00    +0.000 H 
ENDBRANCH    9   10
ENDBRANCH   11    9
ENDBRANCH   13   11
ENDBRANCH   14   13
ENDBRANCH   15   14
ENDBRANCH   16   15
ENDBRANCH   17   16
ENDBRANCH   18   17
ENDBRANCH   19   18
ENDBRANCH   20   19
ENDBRANCH   21   20
ENDBRANCH   23   21
ENDBRANCH   27   26
BRANCH   31   32
ATOM     33  C27 UNL A   1      10.557  47.765   4.701  1.00  0.00    +0.000 C 
ATOM     34  F1  UNL A   1       9.904  48.636   3.918  1.00  0.00    +0.000 F 
ATOM     35  C28 UNL A   1       9.833  46.760   5.337  1.00  0.00    +0.000 C 
ATOM     36  F2  UNL A   1       8.505  46.683   5.168  1.00  0.00    +0.000 F 
ATOM     37  C29 UNL A   1      10.481  45.841   6.148  1.00  0.00    +0.000 C 
ATOM     38  F3  UNL A   1       9.785  44.864   6.747  1.00  0.00    +0.000 F 
ATOM     39  C30 UNL A   1      11.851  45.936   6.343  1.00  0.00    +0.000 C 
ATOM     40  F4  UNL A   1      12.481  45.041   7.116  1.00  0.00    +0.000 F 
ATOM     41  C31 UNL A   1      12.574  46.957   5.730  1.00  0.00    +0.000 C 
ATOM     42  F5  UNL A   1      13.897  47.026   5.942  1.00  0.00    +0.000 F 
ATOM     32  C26 UNL A   1      11.941  47.887   4.892  1.00  0.00    +0.000 C 
ENDBRANCH   31   32
BRANCH   48   49
ATOM     49  C37 UNL A   1      16.054  48.340  -1.000  1.00  0.00    +0.000 C 
ATOM     50  C38 UNL A   1      15.243  48.175  -2.131  1.00  0.00    +0.000 C 
ATOM     51  F6  UNL A   1      14.047  48.779  -2.197  1.00  0.00    +0.000 F 
ATOM     52  C39 UNL A   1      15.640  47.354  -3.182  1.00  0.00    +0.000 C 
ATOM     53  F7  UNL A   1      14.825  47.170  -4.231  1.00  0.00    +0.000 F 
ATOM     54  C40 UNL A   1      16.868  46.709  -3.138  1.00  0.00    +0.000 C 
ATOM     55  F8  UNL A   1      17.249  45.923  -4.153  1.00  0.00    +0.000 F 
ATOM     56  C41 UNL A   1      17.696  46.877  -2.040  1.00  0.00    +0.000 C 
ATOM     57  F9  UNL A   1      18.888  46.266  -2.001  1.00  0.00    +0.000 F 
ATOM     58  C42 UNL A   1      17.290  47.674  -0.974  1.00  0.00    +0.000 C 
ATOM     59  F10 UNL A   1      18.105  47.804   0.083  1.00  0.00    +0.000 F 
ENDBRANCH   48   49
BRANCH   63   64
ATOM     65  C47 UNL A   1      18.700  55.354   1.154  1.00  0.00    +0.000 C 
ATOM     66  F11 UNL A   1      19.100  54.783   2.300  1.00  0.00    +0.000 F 
ATOM     67  C48 UNL A   1      19.479  56.367   0.600  1.00  0.00    +0.000 C 
ATOM     68  F12 UNL A   1      20.603  56.758   1.216  1.00  0.00    +0.000 F 
ATOM     69  C49 UNL A   1      19.077  56.989  -0.573  1.00  0.00    +0.000 C 
ATOM     70  F13 UNL A   1      19.823  57.968  -1.102  1.00  0.00    +0.000 F 
ATOM     71  C50 UNL A   1      17.896  56.604  -1.188  1.00  0.00    +0.000 C 
ATOM     72  F14 UNL A   1      17.512  57.195  -2.327  1.00  0.00    +0.000 F 
ATOM     73  C51 UNL A   1      17.102  55.611  -0.617  1.00  0.00    +0.000 C 
ATOM     74  F15 UNL A   1      15.953  55.275  -1.222  1.00  0.00    +0.000 F 
ATOM     64  C46 UNL A   1      17.487  54.968   0.567  1.00  0.00    +0.000 C 
ENDBRANCH   63   64
TORSDOF 19
ENDMDL
MODEL 2
REMARK VINA RESULT:      -8.6     38.196     43.116
ROOT
ATOM     27  C22 UNL A   1      37.768  30.101  29.845  1.00  0.00    +0.000 C 
ATOM     28  C23 UNL A   1      38.809  29.183  29.266  1.00  0.00    +0.000 C 
ATOM     29  N3  UNL A   1      39.924  28.752  29.801  1.00  0.00    +0.000 N 
ATOM     30  C24 UNL A   1      40.488  27.896  28.865  1.00  0.00    +0.000 C 
ATOM     31  C25 UNL A   1      41.670  27.236  28.927  1.00  0.00    +0.000 C 
ATOM     43  C32 UNL A   1      42.597  27.333  30.024  1.00  0.00    +0.000 C 
ATOM     44  C33 UNL A   1      43.850  26.757  30.147  1.00  0.00    +0.000 C 
ATOM     45  C34 UNL A   1      44.370  27.103  31.399  1.00  0.00    +0.000 C 
ATOM     46  C35 UNL A   1      43.460  27.932  32.035  1.00  0.00    +0.000 C 
ATOM     47  N4  UNL A   1      42.374  28.059  31.184  1.00  0.00    +0.000 N 
ATOM     48  C36 UNL A   1      43.573  28.564  33.323  1.00  0.00    +0.000 C 
ATOM     60  C43 UNL A   1      42.623  29.348  33.888  1.00  0.00    +0.000 C 
ATOM     61  N5  UNL A   1      41.390  29.730  33.379  1.00  0.00    +0.000 N 
ATOM     62  C44 UNL A   1      40.835  30.477  34.301  1.00  0.00    +0.000 C 
ATOM     63  C45 UNL A   1      39.514  31.200  34.273  1.00  0.00    +0.000 C 
ATOM     75  C52 UNL A   1      38.749  31.129  33.168  1.00  0.00    +0.000 C 
ATOM     76  C53 UNL A   1      37.459  31.787  32.987  1.00  0.00    +0.000 C 
ATOM     77  C54 UNL A   1      36.970  31.469  31.778  1.00  0.00    +0.000 C 
ATOM     78  C55 UNL A   1      37.930  30.607  31.084  1.00  0.00    +0.000 C 
ATOM     79  N6  UNL A   1      38.955  30.461  31.986  1.00  0.00    +0.000 N 
ATOM     80  C56 UNL A   1      41.642  30.621  35.521  1.00  0.00    +0.000 C 
ATOM     81  C57 UNL A   1      42.741  29.955  35.197  1.00  0.00    +0.000 C 
ATOM     82  C58 UNL A   1      39.575  27.833  27.744  1.00  0.00    +0.000 C 
ATOM     83  C59 UNL A   1      38.553  28.659  27.915  1.00  0.00    +0.000 C 
ATOM    116  H27 UNL A   1      44.321  26.173  29.438  1.00  0.00    +0.000 H 
ATOM    117  H28 UNL A   1      45.275  26.793  31.783  1.00  0.00    +0.000 H 
ATOM    118  H29 UNL A   1      41.564  28.584  31.375  1.00  0.00    +0.000 H 
ATOM    119  H30 UNL A   1      36.996  32.400  33.678  1.00  0.00    +0.000 H 
ATOM    120  H31 UNL A   1      36.063  31.781  31.398  1.00  0.00    +0.000 H 
ATOM    121  H32 UNL A   1      39.762  29.927  31.802  1.00  0.00    +0.000 H 
ATOM    122  H33 UNL A   1      41.415  31.112  36.399  1.00  0.00    +0.000 H 
ATOM    123  H34 UNL A   1      43.574  29.878  35.801  1.00  0.00    +0.000 H 
ATOM    124  H35 UNL A   1      39.703  27.224  26.920  1.00  0.00    +0.000 H 
ATOM    125  H36 UNL A   1      37.780  28.878  27.269  1.00  0.00    +0.000 H 
ENDROOT
BRANCH   27   26
ATOM    114  H25 UNL A   1      34.613  32.986  28.086  1.00  0.00    +0.000 H 
ATOM    115  H26 UNL A   1      36.691  32.512  29.247  1.00  0.00    +0.000 H 
ATOM     84  C60 UNL A   1      35.767  29.365  28.539  1.00  0.00    +0.000 C 
ATOM     85  C61 UNL A   1      34.614  29.643  27.805  1.00  0.00    +0.000 C 
ATOM     23  C18 UNL A   1      34.163  30.960  27.687  1.00  0.00    +0.000 C 
ATOM     24  C19 UNL A   1      34.927  32.009  28.205  1.00  0.00    +0.000 C 
ATOM     25  C20 UNL A   1      36.116  31.735  28.886  1.00  0.00    +0.000 C 
ATOM     26  C21 UNL A   1      36.532  30.409  29.081  1.00  0.00    +0.000 C 
ATOM    126  H37 UNL A   1      36.060  28.386  28.684  1.00  0.00    +0.000 H 
ATOM    127  H38 UNL A   1      34.095  28.876  27.349  1.00  0.00    +0.000 H 
BRANCH   23   21
ATOM     21  C17 UNL A   1      32.896  31.283  26.993  1.00  0.00    +0.000 C 
ATOM     22  O3  UNL A   1      32.455  32.429  27.036  1.00  0.00    +0.000 O 
BRANCH   21   20
ATOM    113  H24 UNL A   1      32.127  30.438  25.350  1.00  0.00    +0.000 H 
ATOM     20  N2  UNL A   1      32.204  30.307  26.324  1.00  0.00    +0.000 N 
BRANCH   20   19
ATOM     19  C16 UNL A   1      31.567  29.108  26.840  1.00  0.00    +0.000 C 
ATOM    111  H22 UNL A   1      32.048  28.830  27.755  1.00  0.00    +0.000 H 
ATOM    112  H23 UNL A   1      30.531  29.330  26.991  1.00  0.00    +0.000 H 
BRANCH   19   18
ATOM     18  C15 UNL A   1      31.652  27.934  25.868  1.00  0.00    +0.000 C 
ATOM    109  H20 UNL A   1      30.672  27.518  25.767  1.00  0.00    +0.000 H 
ATOM    110  H21 UNL A   1      32.044  28.334  24.956  1.00  0.00    +0.000 H 
BRANCH   18   17
ATOM     17  C14 UNL A   1      32.604  26.809  26.281  1.00  0.00    +0.000 C 
ATOM    107  H18 UNL A   1      33.007  27.055  27.241  1.00  0.00    +0.000 H 
ATOM    108  H19 UNL A   1      32.020  25.913  26.273  1.00  0.00    +0.000 H 
BRANCH   17   16
ATOM    105  H16 UNL A   1      33.401  26.569  24.329  1.00  0.00    +0.000 H 
ATOM    106  H17 UNL A   1      34.494  27.320  25.531  1.00  0.00    +0.000 H 
ATOM     16  C13 UNL A   1      33.778  26.553  25.329  1.00  0.00    +0.000 C 
BRANCH   16   15
ATOM    103  H14 UNL A   1      34.890  24.901  24.590  1.00  0.00    +0.000 H 
ATOM     15  C12 UNL A   1      34.512  25.225  25.536  1.00  0.00    +0.000 C 
ATOM    104  H15 UNL A   1      35.282  25.415  26.254  1.00  0.00    +0.000 H 
BRANCH   15   14
ATOM    102  H13 UNL A   1      32.626  24.402  26.047  1.00  0.00    +0.000 H 
ATOM    101  H12 UNL A   1      33.937  23.937  27.130  1.00  0.00    +0.000 H 
ATOM     14  C11 UNL A   1      33.653  24.104  26.113  1.00  0.00    +0.000 C 
BRANCH   14   13
ATOM    100  H11 UNL A   1      34.707  22.460  25.432  1.00  0.00    +0.000 H 
ATOM     13  N1  UNL A   1      33.815  22.872  25.370  1.00  0.00    +0.000 N 
BRANCH   13   11
ATOM     11  C10 UNL A   1      32.917  22.197  24.599  1.00  0.00    +0.000 C 
ATOM     12  O2  UNL A   1      32.273  21.291  25.139  1.00  0.00    +0.000 O 
BRANCH   11    9
ATOM      9  C8  UNL A   1      32.691  22.543  23.122  1.00  0.00    +0.000 C 
ATOM     96  H7  UNL A   1      33.627  22.561  22.603  1.00  0.00    +0.000 H 
BRANCH    9    8
ATOM    129  H40 UNL A   1      32.832  26.881  21.372  1.00  0.00    +0.000 H 
ATOM    130  H41 UNL A   1      30.987  28.483  21.674  1.00  0.00    +0.000 H 
ATOM      3  C2  UNL A   1      29.312  28.158  22.909  1.00  0.00    +0.000 C 
ATOM      4  C3  UNL A   1      28.648  27.243  23.723  1.00  0.00    +0.000 C 
ATOM      5  C4  UNL A   1      29.204  25.981  23.942  1.00  0.00    +0.000 C 
ATOM      6  C5  UNL A   1      30.425  25.621  23.349  1.00  0.00    +0.000 C 
ATOM      7  C6  UNL A   1      30.986  24.347  23.538  1.00  0.00    +0.000 C 
ATOM      8  C7  UNL A   1      32.206  23.976  22.940  1.00  0.00    +0.000 C 
ATOM     86  C62 UNL A   1      32.885  24.935  22.180  1.00  0.00    +0.000 C 
ATOM     87  C63 UNL A   1      32.328  26.199  21.961  1.00  0.00    +0.000 C 
ATOM     88  C64 UNL A   1      31.097  26.552  22.529  1.00  0.00    +0.000 C 
ATOM     89  C65 UNL A   1      30.517  27.810  22.300  1.00  0.00    +0.000 C 
ATOM     93  H4  UNL A   1      27.748  27.497  24.160  1.00  0.00    +0.000 H 
ATOM     94  H5  UNL A   1      28.713  25.305  24.548  1.00  0.00    +0.000 H 
ATOM     95  H6  UNL A   1      30.490  23.664  24.131  1.00  0.00    +0.000 H 
ATOM    128  H39 UNL A   1      33.807  24.706  21.777  1.00  0.00    +0.000 H 
BRANCH    3    2
ATOM      2  O1  UNL A   1      28.803  29.392  22.611  1.00  0.00    +0.000 O 
BRANCH    2    1
ATOM      1  C1  UNL A   1      29.682  30.157  21.789  1.00  0.00    +0.000 C 
ATOM     90  H1  UNL A   1      30.584  29.606  21.621  1.00  0.00    +0.000 H 
ATOM     91  H2  UNL A   1      29.914  31.080  22.278  1.00  0.00    +0.000 H 
ATOM     92  H3  UNL A   1      29.207  30.359  20.852  1.00  0.00    +0.000 H 
ENDBRANCH    2    1
ENDBRANCH    3    2
ENDBRANCH    9    8
BRANCH    9   10
ATOM     97  H8  UNL A   1      30.903  21.449  22.686  1.00  0.00    +0.000 H 
ATOM     10  C9  UNL A   1      31.931  21.428  22.395  1.00  0.00    +0.000 C 
ATOM     99  H10 UNL A   1      32.006  21.576  21.338  1.00  0.00    +0.000 H 
ATOM     98  H9  UNL A   1      32.357  20.481  22.654  1.00  0.00    +0.000 H 
ENDBRANCH    9   10
ENDBRANCH   11    9
ENDBRANCH   13   11
ENDBRANCH   14   13
ENDBRANCH   15   14
ENDBRANCH   16   15
ENDBRANCH   17   16
ENDBRANCH   18   17
ENDBRANCH   19   18
ENDBRANCH   20   19
ENDBRANCH   21   20
ENDBRANCH   23   21
ENDBRANCH   27   26
BRANCH   31   32
ATOM     33  C27 UNL A   1      42.939  26.781  26.781  1.00  0.00    +0.000 C 
ATOM     34  F1  UNL A   1      43.428  28.029  26.805  1.00  0.00    +0.000 F 
ATOM     35  C28 UNL A   1      43.316  25.932  25.743  1.00  0.00    +0.000 C 
ATOM     36  F2  UNL A   1      44.147  26.372  24.788  1.00  0.00    +0.000 F 
ATOM     37  C29 UNL A   1      42.831  24.634  25.694  1.00  0.00    +0.000 C 
ATOM     38  F3  UNL A   1      43.208  23.813  24.703  1.00  0.00    +0.000 F 
ATOM     39  C30 UNL A   1      41.951  24.187  26.669  1.00  0.00    +0.000 C 
ATOM     40  F4  UNL A   1      41.493  22.929  26.630  1.00  0.00    +0.000 F 
ATOM     41  C31 UNL A   1      41.550  25.042  27.693  1.00  0.00    +0.000 C 
ATOM     42  F5  UNL A   1      40.695  24.583  28.618  1.00  0.00    +0.000 F 
ATOM     32  C26 UNL A   1      42.043  26.354  27.771  1.00  0.00    +0.000 C 
ENDBRANCH   31   32
BRANCH   48   49
ATOM     49  C37 UNL A   1      44.848  28.366  34.090  1.00  0.00    +0.000 C 
ATOM     50  C38 UNL A   1      45.936  29.239  33.952  1.00  0.00    +0.000 C 
ATOM     51  F6  UNL A   1      45.874  30.263  33.086  1.00  0.00    +0.000 F 
ATOM     52  C39 UNL A   1      47.110  29.038  34.673  1.00  0.00    +0.000 C 
ATOM     53  F7  UNL A   1      48.156  29.854  34.487  1.00  0.00    +0.000 F 
ATOM     54  C40 UNL A   1      47.205  27.983  35.568  1.00  0.00    +0.000 C 
ATOM     55  F8  UNL A   1      48.334  27.794  36.264  1.00  0.00    +0.000 F 
ATOM     56  C41 UNL A   1      46.132  27.122  35.738  1.00  0.00    +0.000 C 
ATOM     57  F9  UNL A   1      46.218  26.110  36.612  1.00  0.00    +0.000 F 
ATOM     58  C42 UNL A   1      44.968  27.302  34.997  1.00  0.00    +0.000 C 
ATOM     59  F10 UNL A   1      43.953  26.443  35.170  1.00  0.00    +0.000 F 
ENDBRANCH   48   49
BRANCH   63   64
ATOM     65  C47 UNL A   1      39.437  33.355  35.563  1.00  0.00    +0.000 C 
ATOM     66  F11 UNL A   1      40.185  33.934  34.613  1.00  0.00    +0.000 F 
ATOM     67  C48 UNL A   1      39.084  34.099  36.687  1.00  0.00    +0.000 C 
ATOM     68  F12 UNL A   1      39.497  35.367  36.805  1.00  0.00    +0.000 F 
ATOM     69  C49 UNL A   1      38.328  33.518  37.694  1.00  0.00    +0.000 C 
ATOM     70  F13 UNL A   1      37.994  34.232  38.778  1.00  0.00    +0.000 F 
ATOM     71  C50 UNL A   1      37.930  32.194  37.582  1.00  0.00    +0.000 C 
ATOM     72  F14 UNL A   1      37.190  31.635  38.548  1.00  0.00    +0.000 F 
ATOM     73  C51 UNL A   1      38.309  31.442  36.472  1.00  0.00    +0.000 C 
ATOM     74  F15 UNL A   1      37.930  30.157  36.402  1.00  0.00    +0.000 F 
ATOM     64  C46 UNL A   1      39.072  32.007  35.441  1.00  0.00    +0.000 C 
ENDBRANCH   63   64
TORSDOF 19
ENDMDL
MODEL 3
REMARK VINA RESULT:      -8.6     46.599     51.265
ROOT
ATOM     27  C22 UNL A   1      53.646  19.675  11.722  1.00  0.00    +0.000 C 
ATOM     28  C23 UNL A   1      55.011  19.051  11.645  1.00  0.00    +0.000 C 
ATOM     29  N3  UNL A   1      55.970  19.042  12.538  1.00  0.00    +0.000 N 
ATOM     30  C24 UNL A   1      56.997  18.289  11.985  1.00  0.00    +0.000 C 
ATOM     31  C25 UNL A   1      58.224  18.028  12.497  1.00  0.00    +0.000 C 
ATOM     43  C32 UNL A   1      58.700  18.529  13.760  1.00  0.00    +0.000 C 
ATOM     44  C33 UNL A   1      59.951  18.376  14.331  1.00  0.00    +0.000 C 
ATOM     45  C34 UNL A   1      59.943  19.009  15.578  1.00  0.00    +0.000 C 
ATOM     46  C35 UNL A   1      58.702  19.596  15.762  1.00  0.00    +0.000 C 
ATOM     47  N4  UNL A   1      57.946  19.287  14.642  1.00  0.00    +0.000 N 
ATOM     48  C36 UNL A   1      58.239  20.383  16.875  1.00  0.00    +0.000 C 
ATOM     60  C43 UNL A   1      56.994  20.906  16.990  1.00  0.00    +0.000 C 
ATOM     61  N5  UNL A   1      55.932  20.836  16.100  1.00  0.00    +0.000 N 
ATOM     62  C44 UNL A   1      54.945  21.487  16.664  1.00  0.00    +0.000 C 
ATOM     63  C45 UNL A   1      53.564  21.770  16.134  1.00  0.00    +0.000 C 
ATOM     75  C52 UNL A   1      53.232  21.341  14.902  1.00  0.00    +0.000 C 
ATOM     76  C53 UNL A   1      51.944  21.554  14.249  1.00  0.00    +0.000 C 
ATOM     77  C54 UNL A   1      51.961  20.961  13.045  1.00  0.00    +0.000 C 
ATOM     78  C55 UNL A   1      53.274  20.351  12.828  1.00  0.00    +0.000 C 
ATOM     79  N6  UNL A   1      53.963  20.629  13.982  1.00  0.00    +0.000 N 
ATOM     80  C56 UNL A   1      55.261  22.011  18.001  1.00  0.00    +0.000 C 
ATOM     81  C57 UNL A   1      56.535  21.672  18.129  1.00  0.00    +0.000 C 
ATOM     82  C58 UNL A   1      56.533  17.821  10.697  1.00  0.00    +0.000 C 
ATOM     83  C59 UNL A   1      55.337  18.316  10.412  1.00  0.00    +0.000 C 
ATOM    116  H27 UNL A   1      60.752  17.880  13.911  1.00  0.00    +0.000 H 
ATOM    117  H28 UNL A   1      60.728  19.034  16.248  1.00  0.00    +0.000 H 
ATOM    118  H29 UNL A   1      57.013  19.564  14.496  1.00  0.00    +0.000 H 
ATOM    119  H30 UNL A   1      51.149  22.077  14.649  1.00  0.00    +0.000 H 
ATOM    120  H31 UNL A   1      51.173  20.938  12.378  1.00  0.00    +0.000 H 
ATOM    121  H32 UNL A   1      54.893  20.344  14.136  1.00  0.00    +0.000 H 
ATOM    122  H33 UNL A   1      54.651  22.513  18.665  1.00  0.00    +0.000 H 
ATOM    123  H34 UNL A   1      57.125  21.922  18.938  1.00  0.00    +0.000 H 
ATOM    124  H35 UNL A   1      57.063  17.185  10.081  1.00  0.00    +0.000 H 
ATOM    125  H36 UNL A   1      54.779  18.214   9.551  1.00  0.00    +0.000 H 
ENDROOT
BRANCH   27   26
ATOM    114  H25 UNL A   1      51.514  21.052   7.857  1.00  0.00    +0.000 H 
ATOM    115  H26 UNL A   1      53.173  21.304   9.611  1.00  0.00    +0.000 H 
ATOM     84  C60 UNL A   1      51.876  18.355  10.548  1.00  0.00    +0.000 C 
ATOM     85  C61 UNL A   1      50.978  18.174   9.496  1.00  0.00    +0.000 C 
ATOM     23  C18 UNL A   1      50.806  19.183   8.545  1.00  0.00    +0.000 C 
ATOM     24  C19 UNL A   1      51.615  20.323   8.581  1.00  0.00    +0.000 C 
ATOM     25  C20 UNL A   1      52.560  20.474   9.600  1.00  0.00    +0.000 C 
ATOM     26  C21 UNL A   1      52.680  19.503  10.607  1.00  0.00    +0.000 C 
ATOM    126  H37 UNL A   1      51.950  17.639  11.288  1.00  0.00    +0.000 H 
ATOM    127  H38 UNL A   1      50.442  17.296   9.420  1.00  0.00    +0.000 H 
BRANCH   23   21
ATOM     21  C17 UNL A   1      49.799  19.065   7.468  1.00  0.00    +0.000 C 
ATOM     22  O3  UNL A   1      49.213  17.999   7.297  1.00  0.00    +0.000 O 
BRANCH   21   20
ATOM    113  H24 UNL A   1      50.250  20.360   6.010  1.00  0.00    +0.000 H 
ATOM     20  N2  UNL A   1      49.534  20.132   6.647  1.00  0.00    +0.000 N 
BRANCH   20   19
ATOM     19  C16 UNL A   1      48.352  20.973   6.579  1.00  0.00    +0.000 C 
ATOM    111  H22 UNL A   1      47.730  20.760   7.423  1.00  0.00    +0.000 H 
ATOM    112  H23 UNL A   1      48.679  21.992   6.577  1.00  0.00    +0.000 H 
BRANCH   19   18
ATOM     18  C15 UNL A   1      47.542  20.745   5.306  1.00  0.00    +0.000 C 
ATOM    109  H20 UNL A   1      46.872  21.570   5.189  1.00  0.00    +0.000 H 
ATOM    110  H21 UNL A   1      48.257  20.658   4.513  1.00  0.00    +0.000 H 
BRANCH   18   17
ATOM     17  C14 UNL A   1      46.718  19.456   5.276  1.00  0.00    +0.000 C 
ATOM    107  H18 UNL A   1      46.669  19.073   6.273  1.00  0.00    +0.000 H 
ATOM    108  H19 UNL A   1      45.766  19.726   4.869  1.00  0.00    +0.000 H 
BRANCH   17   16
ATOM    105  H16 UNL A   1      48.289  18.555   4.169  1.00  0.00    +0.000 H 
ATOM    106  H17 UNL A   1      47.104  17.430   4.900  1.00  0.00    +0.000 H 
ATOM     16  C13 UNL A   1      47.260  18.345   4.370  1.00  0.00    +0.000 C 
BRANCH   16   15
ATOM    103  H14 UNL A   1      46.358  19.157   2.626  1.00  0.00    +0.000 H 
ATOM     15  C12 UNL A   1      46.540  18.182   3.028  1.00  0.00    +0.000 C 
ATOM    104  H15 UNL A   1      47.180  17.586   2.412  1.00  0.00    +0.000 H 
BRANCH   15   14
ATOM    102  H13 UNL A   1      44.928  17.364   4.136  1.00  0.00    +0.000 H 
ATOM    101  H12 UNL A   1      45.320  16.476   2.664  1.00  0.00    +0.000 H 
ATOM     14  C11 UNL A   1      45.207  17.444   3.106  1.00  0.00    +0.000 C 
BRANCH   14   13
ATOM    100  H11 UNL A   1      44.160  18.053   1.429  1.00  0.00    +0.000 H 
ATOM     13  N1  UNL A   1      44.159  18.160   2.407  1.00  0.00    +0.000 N 
BRANCH   13   11
ATOM     11  C10 UNL A   1      43.173  18.958   2.903  1.00  0.00    +0.000 C 
ATOM     12  O2  UNL A   1      43.517  20.013   3.449  1.00  0.00    +0.000 O 
BRANCH   11    9
ATOM      9  C8  UNL A   1      41.689  18.586   2.788  1.00  0.00    +0.000 C 
ATOM     96  H7  UNL A   1      41.588  17.625   2.327  1.00  0.00    +0.000 H 
BRANCH    9    8
ATOM    129  H40 UNL A   1      41.230  21.118  -1.121  1.00  0.00    +0.000 H 
ATOM    130  H41 UNL A   1      39.060  22.021  -1.857  1.00  0.00    +0.000 H 
ATOM      3  C2  UNL A   1      37.289  21.949  -0.721  1.00  0.00    +0.000 C 
ATOM      4  C3  UNL A   1      36.692  21.472   0.444  1.00  0.00    +0.000 C 
ATOM      5  C4  UNL A   1      37.454  20.751   1.366  1.00  0.00    +0.000 C 
ATOM      6  C5  UNL A   1      38.815  20.496   1.131  1.00  0.00    +0.000 C 
ATOM      7  C6  UNL A   1      39.589  19.750   2.035  1.00  0.00    +0.000 C 
ATOM      8  C7  UNL A   1      40.952  19.484   1.802  1.00  0.00    +0.000 C 
ATOM     86  C62 UNL A   1      41.543  20.028   0.656  1.00  0.00    +0.000 C 
ATOM     87  C63 UNL A   1      40.781  20.751  -0.267  1.00  0.00    +0.000 C 
ATOM     88  C64 UNL A   1      39.416  20.984  -0.049  1.00  0.00    +0.000 C 
ATOM     89  C65 UNL A   1      38.635  21.690  -0.977  1.00  0.00    +0.000 C 
ATOM     93  H4  UNL A   1      35.692  21.651   0.625  1.00  0.00    +0.000 H 
ATOM     94  H5  UNL A   1      37.012  20.401   2.231  1.00  0.00    +0.000 H 
ATOM     95  H6  UNL A   1      39.146  19.386   2.892  1.00  0.00    +0.000 H 
ATOM    128  H39 UNL A   1      42.553  19.894   0.490  1.00  0.00    +0.000 H 
BRANCH    3    2
ATOM      2  O1  UNL A   1      36.594  22.619  -1.689  1.00  0.00    +0.000 O 
BRANCH    2    1
ATOM      1  C1  UNL A   1      35.953  23.790  -1.186  1.00  0.00    +0.000 C 
ATOM     90  H1  UNL A   1      36.691  24.535  -0.970  1.00  0.00    +0.000 H 
ATOM     91  H2  UNL A   1      35.419  23.547  -0.291  1.00  0.00    +0.000 H 
ATOM     92  H3  UNL A   1      35.270  24.165  -1.919  1.00  0.00    +0.000 H 
ENDBRANCH    2    1
ENDBRANCH    3    2
ENDBRANCH    9    8
BRANCH    9   10
ATOM     97  H8  UNL A   1      41.699  18.763   4.921  1.00  0.00    +0.000 H 
ATOM     10  C9  UNL A   1      41.060  18.359   4.166  1.00  0.00    +0.000 C 
ATOM     99  H10 UNL A   1      40.107  18.845   4.207  1.00  0.00    +0.000 H 
ATOM     98  H9  UNL A   1      40.932  17.309   4.330  1.00  0.00    +0.000 H 
ENDBRANCH    9   10
ENDBRANCH   11    9
ENDBRANCH   13   11
ENDBRANCH   14   13
ENDBRANCH   15   14
ENDBRANCH   16   15
ENDBRANCH   17   16
ENDBRANCH   18   17
ENDBRANCH   19   18
ENDBRANCH   20   19
ENDBRANCH   21   20
ENDBRANCH   23   21
ENDBRANCH   27   26
BRANCH   31   32
ATOM     33  C27 UNL A   1      59.165  15.771  11.831  1.00  0.00    +0.000 C 
ATOM     34  F1  UNL A   1      58.394  15.178  12.754  1.00  0.00    +0.000 F 
ATOM     35  C28 UNL A   1      59.994  14.981  11.039  1.00  0.00    +0.000 C 
ATOM     36  F2  UNL A   1      60.016  13.652  11.214  1.00  0.00    +0.000 F 
ATOM     37  C29 UNL A   1      60.799  15.565  10.073  1.00  0.00    +0.000 C 
ATOM     38  F3  UNL A   1      61.583  14.801   9.300  1.00  0.00    +0.000 F 
ATOM     39  C30 UNL A   1      60.793  16.942   9.910  1.00  0.00    +0.000 C 
ATOM     40  F4  UNL A   1      61.560  17.507   8.967  1.00  0.00    +0.000 F 
ATOM     41  C31 UNL A   1      59.986  17.739  10.719  1.00  0.00    +0.000 C 
ATOM     42  F5  UNL A   1      60.006  19.068  10.541  1.00  0.00    +0.000 F 
ATOM     32  C26 UNL A   1      59.152  17.166  11.691  1.00  0.00    +0.000 C 
ENDBRANCH   31   32
BRANCH   48   49
ATOM     49  C37 UNL A   1      59.211  20.670  17.981  1.00  0.00    +0.000 C 
ATOM     50  C38 UNL A   1      59.440  19.757  19.020  1.00  0.00    +0.000 C 
ATOM     51  F6  UNL A   1      58.752  18.606  19.070  1.00  0.00    +0.000 F 
ATOM     52  C39 UNL A   1      60.346  20.043  20.036  1.00  0.00    +0.000 C 
ATOM     53  F7  UNL A   1      60.512  19.179  21.047  1.00  0.00    +0.000 F 
ATOM     54  C40 UNL A   1      61.065  21.230  20.015  1.00  0.00    +0.000 C 
ATOM     55  F8  UNL A   1      61.941  21.501  20.993  1.00  0.00    +0.000 F 
ATOM     56  C41 UNL A   1      60.873  22.136  18.985  1.00  0.00    +0.000 C 
ATOM     57  F9  UNL A   1      61.575  23.277  18.956  1.00  0.00    +0.000 F 
ATOM     58  C42 UNL A   1      59.945  21.867  17.983  1.00  0.00    +0.000 C 
ATOM     59  F10 UNL A   1      59.767  22.770  17.008  1.00  0.00    +0.000 F 
ENDBRANCH   48   49
BRANCH   63   64
ATOM     65  C47 UNL A   1      52.439  23.924  16.775  1.00  0.00    +0.000 C 
ATOM     66  F11 UNL A   1      53.178  24.566  15.857  1.00  0.00    +0.000 F 
ATOM     67  C48 UNL A   1      51.576  24.663  17.580  1.00  0.00    +0.000 C 
ATOM     68  F12 UNL A   1      51.500  25.992  17.433  1.00  0.00    +0.000 F 
ATOM     69  C49 UNL A   1      50.817  24.027  18.551  1.00  0.00    +0.000 C 
ATOM     70  F13 UNL A   1      49.991  24.739  19.330  1.00  0.00    +0.000 F 
ATOM     71  C50 UNL A   1      50.924  22.655  18.721  1.00  0.00    +0.000 C 
ATOM     72  F14 UNL A   1      50.183  22.037  19.650  1.00  0.00    +0.000 F 
ATOM     73  C51 UNL A   1      51.810  21.920  17.936  1.00  0.00    +0.000 C 
ATOM     74  F15 UNL A   1      51.910  20.598  18.139  1.00  0.00    +0.000 F 
ATOM     64  C46 UNL A   1      52.587  22.540  16.948  1.00  0.00    +0.000 C 
ENDBRANCH   63   64
TORSDOF 19
ENDMDL
MODEL 4
REMARK VINA RESULT:      -8.6      2.755      7.559
ROOT
ATOM     27  C22 UNL A   1      13.290  49.330   3.910  1.00  0.00    +0.000 C 
ATOM     28  C23 UNL A   1      13.388  50.724   4.465  1.00  0.00    +0.000 C 
ATOM     29  N3  UNL A   1      13.987  51.775   3.963  1.00  0.00    +0.000 N 
ATOM     30  C24 UNL A   1      13.732  52.815   4.847  1.00  0.00    +0.000 C 
ATOM     31  C25 UNL A   1      14.177  54.094   4.798  1.00  0.00    +0.000 C 
ATOM     43  C32 UNL A   1      15.049  54.612   3.777  1.00  0.00    +0.000 C 
ATOM     44  C33 UNL A   1      15.608  55.874   3.679  1.00  0.00    +0.000 C 
ATOM     45  C34 UNL A   1      16.361  55.930   2.502  1.00  0.00    +0.000 C 
ATOM     46  C35 UNL A   1      16.308  54.688   1.891  1.00  0.00    +0.000 C 
ATOM     47  N4  UNL A   1      15.493  53.891   2.679  1.00  0.00    +0.000 N 
ATOM     48  C36 UNL A   1      16.954  54.258   0.678  1.00  0.00    +0.000 C 
ATOM     60  C43 UNL A   1      16.833  53.024   0.131  1.00  0.00    +0.000 C 
ATOM     61  N5  UNL A   1      16.117  51.929   0.595  1.00  0.00    +0.000 N 
ATOM     62  C44 UNL A   1      16.304  50.978  -0.285  1.00  0.00    +0.000 C 
ATOM     63  C45 UNL A   1      15.803  49.557  -0.273  1.00  0.00    +0.000 C 
ATOM     75  C52 UNL A   1      15.067  49.129   0.769  1.00  0.00    +0.000 C 
ATOM     76  C53 UNL A   1      14.528  47.782   0.930  1.00  0.00    +0.000 C 
ATOM     77  C54 UNL A   1      13.821  47.726   2.070  1.00  0.00    +0.000 C 
ATOM     78  C55 UNL A   1      13.883  49.027   2.737  1.00  0.00    +0.000 C 
ATOM     79  N6  UNL A   1      14.645  49.796   1.893  1.00  0.00    +0.000 N 
ATOM     80  C56 UNL A   1      17.132  51.377  -1.433  1.00  0.00    +0.000 C 
ATOM     81  C57 UNL A   1      17.468  52.616  -1.104  1.00  0.00    +0.000 C 
ATOM     82  C58 UNL A   1      12.891  52.283   5.897  1.00  0.00    +0.000 C 
ATOM     83  C59 UNL A   1      12.701  50.980   5.741  1.00  0.00    +0.000 C 
ATOM    116  H27 UNL A   1      15.491  56.643   4.358  1.00  0.00    +0.000 H 
ATOM    117  H28 UNL A   1      16.868  56.756   2.148  1.00  0.00    +0.000 H 
ATOM    118  H29 UNL A   1      15.264  52.953   2.488  1.00  0.00    +0.000 H 
ATOM    119  H30 UNL A   1      14.668  46.998   0.272  1.00  0.00    +0.000 H 
ATOM    120  H31 UNL A   1      13.314  46.897   2.419  1.00  0.00    +0.000 H 
ATOM    121  H32 UNL A   1      14.868  50.738   2.077  1.00  0.00    +0.000 H 
ATOM    122  H33 UNL A   1      17.387  50.835  -2.273  1.00  0.00    +0.000 H 
ATOM    123  H34 UNL A   1      18.100  53.213  -1.658  1.00  0.00    +0.000 H 
ATOM    124  H35 UNL A   1      12.491  52.843   6.665  1.00  0.00    +0.000 H 
ATOM    125  H36 UNL A   1      12.202  50.318   6.354  1.00  0.00    +0.000 H 
ENDROOT
BRANCH   27   26
ATOM    114  H25 UNL A   1       9.328  47.270   5.108  1.00  0.00    +0.000 H 
ATOM    115  H26 UNL A   1      10.617  48.902   3.856  1.00  0.00    +0.000 H 
ATOM     84  C60 UNL A   1      13.140  47.353   5.434  1.00  0.00    +0.000 C 
ATOM     85  C61 UNL A   1      12.406  46.367   6.092  1.00  0.00    +0.000 C 
ATOM     23  C18 UNL A   1      11.010  46.370   6.017  1.00  0.00    +0.000 C 
ATOM     24  C19 UNL A   1      10.357  47.291   5.192  1.00  0.00    +0.000 C 
ATOM     25  C20 UNL A   1      11.098  48.240   4.484  1.00  0.00    +0.000 C 
ATOM     26  C21 UNL A   1      12.495  48.295   4.619  1.00  0.00    +0.000 C 
ATOM    126  H37 UNL A   1      14.166  47.391   5.548  1.00  0.00    +0.000 H 
ATOM    127  H38 UNL A   1      12.892  45.634   6.632  1.00  0.00    +0.000 H 
BRANCH   23   21
ATOM     21  C17 UNL A   1      10.194  45.395   6.773  1.00  0.00    +0.000 C 
ATOM     22  O3  UNL A   1      10.158  44.222   6.410  1.00  0.00    +0.000 O 
BRANCH   21   20
ATOM    113  H24 UNL A   1       8.584  45.361   7.962  1.00  0.00    +0.000 H 
ATOM     20  N2  UNL A   1       9.462  45.798   7.860  1.00  0.00    +0.000 N 
BRANCH   20   19
ATOM     19  C16 UNL A   1       9.790  46.775   8.883  1.00  0.00    +0.000 C 
ATOM    111  H22 UNL A   1       9.849  47.742   8.429  1.00  0.00    +0.000 H 
ATOM    112  H23 UNL A   1       9.022  46.735   9.627  1.00  0.00    +0.000 H 
BRANCH   19   18
ATOM     18  C15 UNL A   1      11.118  46.478   9.573  1.00  0.00    +0.000 C 
ATOM    109  H20 UNL A   1      10.906  46.079  10.542  1.00  0.00    +0.000 H 
ATOM    110  H21 UNL A   1      11.637  45.795   8.932  1.00  0.00    +0.000 H 
BRANCH   18   17
ATOM     17  C14 UNL A   1      12.048  47.682   9.749  1.00  0.00    +0.000 C 
ATOM    107  H18 UNL A   1      11.847  48.115  10.706  1.00  0.00    +0.000 H 
ATOM    108  H19 UNL A   1      13.042  47.301   9.646  1.00  0.00    +0.000 H 
BRANCH   17   16
ATOM    105  H16 UNL A   1      12.892  49.047   8.360  1.00  0.00    +0.000 H 
ATOM    106  H17 UNL A   1      11.290  48.379   7.923  1.00  0.00    +0.000 H 
ATOM     16  C13 UNL A   1      11.910  48.784   8.693  1.00  0.00    +0.000 C 
BRANCH   16   15
ATOM    103  H14 UNL A   1      10.509  50.357   8.417  1.00  0.00    +0.000 H 
ATOM     15  C12 UNL A   1      11.213  50.063   9.167  1.00  0.00    +0.000 C 
ATOM    104  H15 UNL A   1      10.756  49.828  10.105  1.00  0.00    +0.000 H 
BRANCH   15   14
ATOM    102  H13 UNL A   1      11.603  52.145   9.261  1.00  0.00    +0.000 H 
ATOM    101  H12 UNL A   1      12.985  51.171   8.762  1.00  0.00    +0.000 H 
ATOM     14  C11 UNL A   1      12.149  51.240   9.426  1.00  0.00    +0.000 C 
BRANCH   14   13
ATOM    100  H11 UNL A   1      12.080  51.750  11.430  1.00  0.00    +0.000 H 
ATOM     13  N1  UNL A   1      12.633  51.245  10.791  1.00  0.00    +0.000 N 
BRANCH   13   11
ATOM     11  C10 UNL A   1      13.740  50.655  11.323  1.00  0.00    +0.000 C 
ATOM     12  O2  UNL A   1      13.563  49.799  12.196  1.00  0.00    +0.000 O 
BRANCH   11    9
ATOM      9  C8  UNL A   1      15.157  51.017  10.859  1.00  0.00    +0.000 C 
ATOM     96  H7  UNL A   1      15.177  52.023  10.494  1.00  0.00    +0.000 H 
BRANCH    9    8
ATOM    129  H40 UNL A   1      15.739  47.148   8.291  1.00  0.00    +0.000 H 
ATOM    130  H41 UNL A   1      16.342  47.230   5.905  1.00  0.00    +0.000 H 
ATOM      3  C2  UNL A   1      16.872  48.983   4.867  1.00  0.00    +0.000 C 
ATOM      4  C3  UNL A   1      16.988  50.369   4.941  1.00  0.00    +0.000 C 
ATOM      5  C4  UNL A   1      16.704  51.023   6.141  1.00  0.00    +0.000 C 
ATOM      6  C5  UNL A   1      16.299  50.301   7.275  1.00  0.00    +0.000 C 
ATOM      7  C6  UNL A   1      15.984  50.946   8.483  1.00  0.00    +0.000 C 
ATOM      8  C7  UNL A   1      15.570  50.228   9.622  1.00  0.00    +0.000 C 
ATOM     86  C62 UNL A   1      15.523  48.832   9.540  1.00  0.00    +0.000 C 
ATOM     87  C63 UNL A   1      15.808  48.176   8.338  1.00  0.00    +0.000 C 
ATOM     88  C64 UNL A   1      16.186  48.897   7.197  1.00  0.00    +0.000 C 
ATOM     89  C65 UNL A   1      16.455  48.253   5.979  1.00  0.00    +0.000 C 
ATOM     93  H4  UNL A   1      17.282  50.910   4.112  1.00  0.00    +0.000 H 
ATOM     94  H5  UNL A   1      16.794  52.051   6.196  1.00  0.00    +0.000 H 
ATOM     95  H6  UNL A   1      16.059  51.973   8.537  1.00  0.00    +0.000 H 
ATOM    128  H39 UNL A   1      15.275  48.281  10.377  1.00  0.00    +0.000 H 
BRANCH    3    2
ATOM      2  O1  UNL A   1      17.086  48.282   3.712  1.00  0.00    +0.000 O 
BRANCH    2    1
ATOM      1  C1  UNL A   1      18.046  48.910   2.865  1.00  0.00    +0.000 C 
ATOM     90  H1  UNL A   1      18.073  48.406   1.922  1.00  0.00    +0.000 H 
ATOM     91  H2  UNL A   1      19.011  48.861   3.324  1.00  0.00    +0.000 H 
ATOM     92  H3  UNL A   1      17.773  49.934   2.716  1.00  0.00    +0.000 H 
ENDBRANCH    2    1
ENDBRANCH    3    2
ENDBRANCH    9    8
BRANCH    9   10
ATOM     97  H8  UNL A   1      17.022  51.591  11.739  1.00  0.00    +0.000 H 
ATOM     10  C9  UNL A   1      16.135  51.074  12.037  1.00  0.00    +0.000 C 
ATOM     99  H10 UNL A   1      15.678  51.590  12.855  1.00  0.00    +0.000 H 
ATOM     98  H9  UNL A   1      16.386  50.078  12.339  1.00  0.00    +0.000 H 
ENDBRANCH    9   10
ENDBRANCH   11    9
ENDBRANCH   13   11
ENDBRANCH   14   13
ENDBRANCH   15   14
ENDBRANCH   16   15
ENDBRANCH   17   16
ENDBRANCH   18   17
ENDBRANCH   19   18
ENDBRANCH   20   19
ENDBRANCH   21   20
ENDBRANCH   23   21
ENDBRANCH   27   26
BRANCH   31   32
ATOM     33  C27 UNL A   1      12.735  55.987   5.672  1.00  0.00    +0.000 C 
ATOM     34  F1  UNL A   1      12.193  56.135   4.454  1.00  0.00    +0.000 F 
ATOM     35  C28 UNL A   1      12.303  56.814   6.704  1.00  0.00    +0.000 C 
ATOM     36  F2  UNL A   1      11.366  57.743   6.469  1.00  0.00    +0.000 F 
ATOM     37  C29 UNL A   1      12.841  56.680   7.976  1.00  0.00    +0.000 C 
ATOM     38  F3  UNL A   1      12.411  57.467   8.973  1.00  0.00    +0.000 F 
ATOM     39  C30 UNL A   1      13.827  55.735   8.213  1.00  0.00    +0.000 C 
ATOM     40  F4  UNL A   1      14.338  55.596   9.444  1.00  0.00    +0.000 F 
ATOM     41  C31 UNL A   1      14.282  54.925   7.175  1.00  0.00    +0.000 C 
ATOM     42  F5  UNL A   1      15.241  54.023   7.434  1.00  0.00    +0.000 F 
ATOM     32  C26 UNL A   1      13.739  55.031   5.886  1.00  0.00    +0.000 C 
ENDBRANCH   31   32
BRANCH   48   49
ATOM     49  C37 UNL A   1      17.851  55.236  -0.021  1.00  0.00    +0.000 C 
ATOM     50  C38 UNL A   1      17.446  55.911  -1.181  1.00  0.00    +0.000 C 
ATOM     51  F6  UNL A   1      16.244  55.662  -1.722  1.00  0.00    +0.000 F 
ATOM     52  C39 UNL A   1      18.294  56.815  -1.815  1.00  0.00    +0.000 C 
ATOM     53  F7  UNL A   1      17.906  57.411  -2.951  1.00  0.00    +0.000 F 
ATOM     54  C40 UNL A   1      19.546  57.087  -1.283  1.00  0.00    +0.000 C 
ATOM     55  F8  UNL A   1      20.359  57.960  -1.893  1.00  0.00    +0.000 F 
ATOM     56  C41 UNL A   1      19.958  56.448  -0.124  1.00  0.00    +0.000 C 
ATOM     57  F9  UNL A   1      21.162  56.718   0.398  1.00  0.00    +0.000 F 
ATOM     58  C42 UNL A   1      19.125  55.521   0.496  1.00  0.00    +0.000 C 
ATOM     59  F10 UNL A   1      19.556  54.907   1.607  1.00  0.00    +0.000 F 
ENDBRANCH   48   49
BRANCH   63   64
ATOM     65  C47 UNL A   1      15.285  48.485  -2.486  1.00  0.00    +0.000 C 
ATOM     66  F11 UNL A   1      14.151  49.199  -2.551  1.00  0.00    +0.000 F 
ATOM     67  C48 UNL A   1      15.560  47.568  -3.498  1.00  0.00    +0.000 C 
ATOM     68  F12 UNL A   1      14.695  47.409  -4.508  1.00  0.00    +0.000 F 
ATOM     69  C49 UNL A   1      16.715  46.802  -3.445  1.00  0.00    +0.000 C 
ATOM     70  F13 UNL A   1      16.976  45.915  -4.415  1.00  0.00    +0.000 F 
ATOM     71  C50 UNL A   1      17.591  46.948  -2.380  1.00  0.00    +0.000 C 
ATOM     72  F14 UNL A   1      18.713  46.218  -2.333  1.00  0.00    +0.000 F 
ATOM     73  C51 UNL A   1      17.300  47.844  -1.353  1.00  0.00    +0.000 C 
ATOM     74  F15 UNL A   1      18.154  47.946  -0.324  1.00  0.00    +0.000 F 
ATOM     64  C46 UNL A   1      16.140  48.629  -1.385  1.00  0.00    +0.000 C 
ENDBRANCH   63   64
TORSDOF 19
ENDMDL
MODEL 5
REMARK VINA RESULT:      -8.5      0.914      7.529
ROOT
ATOM     27  C22 UNL A   1      13.974  53.703   5.006  1.00  0.00    +0.000 C 
ATOM     28  C23 UNL A   1      14.933  54.161   3.943  1.00  0.00    +0.000 C 
ATOM     29  N3  UNL A   1      15.417  53.498   2.922  1.00  0.00    +0.000 N 
ATOM     30  C24 UNL A   1      16.215  54.398   2.229  1.00  0.00    +0.000 C 
ATOM     31  C25 UNL A   1      16.974  54.180   1.128  1.00  0.00    +0.000 C 
ATOM     43  C32 UNL A   1      17.100  52.907   0.467  1.00  0.00    +0.000 C 
ATOM     44  C33 UNL A   1      17.898  52.572  -0.614  1.00  0.00    +0.000 C 
ATOM     45  C34 UNL A   1      17.666  51.230  -0.929  1.00  0.00    +0.000 C 
ATOM     46  C35 UNL A   1      16.759  50.717  -0.016  1.00  0.00    +0.000 C 
ATOM     47  N4  UNL A   1      16.414  51.759   0.830  1.00  0.00    +0.000 N 
ATOM     48  C36 UNL A   1      16.246  49.376   0.080  1.00  0.00    +0.000 C 
ATOM     60  C43 UNL A   1      15.338  48.956   0.995  1.00  0.00    +0.000 C 
ATOM     61  N5  UNL A   1      14.736  49.673   2.020  1.00  0.00    +0.000 N 
ATOM     62  C44 UNL A   1      13.929  48.834   2.620  1.00  0.00    +0.000 C 
ATOM     63  C45 UNL A   1      13.055  49.052   3.827  1.00  0.00    +0.000 C 
ATOM     75  C52 UNL A   1      13.067  50.250   4.439  1.00  0.00    +0.000 C 
ATOM     76  C53 UNL A   1      12.291  50.605   5.624  1.00  0.00    +0.000 C 
ATOM     77  C54 UNL A   1      12.529  51.889   5.935  1.00  0.00    +0.000 C 
ATOM     78  C55 UNL A   1      13.501  52.440   4.990  1.00  0.00    +0.000 C 
ATOM     79  N6  UNL A   1      13.765  51.395   4.139  1.00  0.00    +0.000 N 
ATOM     80  C56 UNL A   1      13.900  47.494   2.015  1.00  0.00    +0.000 C 
ATOM     81  C57 UNL A   1      14.812  47.610   1.061  1.00  0.00    +0.000 C 
ATOM     82  C58 UNL A   1      16.122  55.666   2.919  1.00  0.00    +0.000 C 
ATOM     83  C59 UNL A   1      15.392  55.557   4.020  1.00  0.00    +0.000 C 
ATOM    116  H27 UNL A   1      18.551  53.204  -1.103  1.00  0.00    +0.000 H 
ATOM    117  H28 UNL A   1      18.096  50.710  -1.710  1.00  0.00    +0.000 H 
ATOM    118  H29 UNL A   1      15.777  51.693   1.577  1.00  0.00    +0.000 H 
ATOM    119  H30 UNL A   1      11.660  49.970   6.139  1.00  0.00    +0.000 H 
ATOM    120  H31 UNL A   1      12.095  52.405   6.718  1.00  0.00    +0.000 H 
ATOM    121  H32 UNL A   1      14.394  51.461   3.385  1.00  0.00    +0.000 H 
ATOM    122  H33 UNL A   1      13.322  46.678   2.268  1.00  0.00    +0.000 H 
ATOM    123  H34 UNL A   1      15.109  46.838   0.444  1.00  0.00    +0.000 H 
ATOM    124  H35 UNL A   1      16.565  56.541   2.596  1.00  0.00    +0.000 H 
ATOM    125  H36 UNL A   1      15.197  56.265   4.744  1.00  0.00    +0.000 H 
ENDROOT
BRANCH   27   26
ATOM    114  H25 UNL A   1      14.266  55.820   9.106  1.00  0.00    +0.000 H 
ATOM    115  H26 UNL A   1      15.115  54.344   7.377  1.00  0.00    +0.000 H 
ATOM     84  C60 UNL A   1      12.315  55.376   5.843  1.00  0.00    +0.000 C 
ATOM     85  C61 UNL A   1      11.869  56.282   6.805  1.00  0.00    +0.000 C 
ATOM     23  C18 UNL A   1      12.550  56.404   8.019  1.00  0.00    +0.000 C 
ATOM     24  C19 UNL A   1      13.742  55.702   8.224  1.00  0.00    +0.000 C 
ATOM     25  C20 UNL A   1      14.223  54.842   7.234  1.00  0.00    +0.000 C 
ATOM     26  C21 UNL A   1      13.499  54.651   6.046  1.00  0.00    +0.000 C 
ATOM    126  H37 UNL A   1      11.771  55.237   4.977  1.00  0.00    +0.000 H 
ATOM    127  H38 UNL A   1      11.037  56.864   6.619  1.00  0.00    +0.000 H 
BRANCH   23   21
ATOM     21  C17 UNL A   1      12.055  57.288   9.097  1.00  0.00    +0.000 C 
ATOM     22  O3  UNL A   1      12.271  58.496   9.040  1.00  0.00    +0.000 O 
BRANCH   21   20
ATOM    113  H24 UNL A   1      10.987  57.425  10.784  1.00  0.00    +0.000 H 
ATOM     20  N2  UNL A   1      11.378  56.763  10.168  1.00  0.00    +0.000 N 
BRANCH   20   19
ATOM     19  C16 UNL A   1      11.152  55.375  10.527  1.00  0.00    +0.000 C 
ATOM    111  H22 UNL A   1      10.109  55.235  10.722  1.00  0.00    +0.000 H 
ATOM    112  H23 UNL A   1      11.483  54.770   9.708  1.00  0.00    +0.000 H 
BRANCH   19   18
ATOM     18  C15 UNL A   1      11.940  54.951  11.762  1.00  0.00    +0.000 C 
ATOM    109  H20 UNL A   1      12.210  55.835  12.301  1.00  0.00    +0.000 H 
ATOM    110  H21 UNL A   1      11.297  54.294  12.311  1.00  0.00    +0.000 H 
BRANCH   18   17
ATOM     17  C14 UNL A   1      13.218  54.157  11.484  1.00  0.00    +0.000 C 
ATOM    107  H18 UNL A   1      12.963  53.337  10.846  1.00  0.00    +0.000 H 
ATOM    108  H19 UNL A   1      13.904  54.850  11.044  1.00  0.00    +0.000 H 
BRANCH   17   16
ATOM    105  H16 UNL A   1      14.322  54.413  13.278  1.00  0.00    +0.000 H 
ATOM    106  H17 UNL A   1      13.193  53.024  13.247  1.00  0.00    +0.000 H 
ATOM     16  C13 UNL A   1      13.928  53.591  12.718  1.00  0.00    +0.000 C 
BRANCH   16   15
ATOM    103  H14 UNL A   1      15.164  52.513  11.366  1.00  0.00    +0.000 H 
ATOM     15  C12 UNL A   1      15.079  52.622  12.427  1.00  0.00    +0.000 C 
ATOM    104  H15 UNL A   1      15.951  53.045  12.878  1.00  0.00    +0.000 H 
BRANCH   15   14
ATOM    102  H13 UNL A   1      15.313  51.250  14.026  1.00  0.00    +0.000 H 
ATOM    101  H12 UNL A   1      15.427  50.522  12.425  1.00  0.00    +0.000 H 
ATOM     14  C11 UNL A   1      14.910  51.233  13.035  1.00  0.00    +0.000 C 
BRANCH   14   13
ATOM    100  H11 UNL A   1      12.952  51.447  13.667  1.00  0.00    +0.000 H 
ATOM     13  N1  UNL A   1      13.515  50.853  13.120  1.00  0.00    +0.000 N 
BRANCH   13   11
ATOM     11  C10 UNL A   1      12.866  49.797  12.554  1.00  0.00    +0.000 C 
ATOM     12  O2  UNL A   1      12.806  48.751  13.208  1.00  0.00    +0.000 O 
BRANCH   11    9
ATOM      9  C8  UNL A   1      12.220  49.889  11.165  1.00  0.00    +0.000 C 
ATOM     96  H7  UNL A   1      11.481  49.123  11.055  1.00  0.00    +0.000 H 
BRANCH    9    8
ATOM    129  H40 UNL A   1      14.279  47.053   8.064  1.00  0.00    +0.000 H 
ATOM    130  H41 UNL A   1      15.809  47.892   6.326  1.00  0.00    +0.000 H 
ATOM      3  C2  UNL A   1      16.510  49.874   6.207  1.00  0.00    +0.000 C 
ATOM      4  C3  UNL A   1      16.418  51.157   6.742  1.00  0.00    +0.000 C 
ATOM      5  C4  UNL A   1      15.582  51.392   7.836  1.00  0.00    +0.000 C 
ATOM      6  C5  UNL A   1      14.831  50.350   8.402  1.00  0.00    +0.000 C 
ATOM      7  C6  UNL A   1      13.966  50.574   9.486  1.00  0.00    +0.000 C 
ATOM      8  C7  UNL A   1      13.203  49.536  10.055  1.00  0.00    +0.000 C 
ATOM     86  C62 UNL A   1      13.362  48.244   9.542  1.00  0.00    +0.000 C 
ATOM     87  C63 UNL A   1      14.199  48.008   8.446  1.00  0.00    +0.000 C 
ATOM     88  C64 UNL A   1      14.930  49.051   7.861  1.00  0.00    +0.000 C 
ATOM     89  C65 UNL A   1      15.758  48.832   6.748  1.00  0.00    +0.000 C 
ATOM     93  H4  UNL A   1      16.964  51.930   6.330  1.00  0.00    +0.000 H 
ATOM     94  H5  UNL A   1      15.517  52.342   8.233  1.00  0.00    +0.000 H 
ATOM     95  H6  UNL A   1      13.887  51.526   9.876  1.00  0.00    +0.000 H 
ATOM    128  H39 UNL A   1      12.856  47.457   9.976  1.00  0.00    +0.000 H 
BRANCH    3    2
ATOM      2  O1  UNL A   1      17.269  49.581   5.108  1.00  0.00    +0.000 O 
BRANCH    2    1
ATOM      1  C1  UNL A   1      16.931  48.319   4.536  1.00  0.00    +0.000 C 
ATOM     90  H1  UNL A   1      16.582  48.463   3.534  1.00  0.00    +0.000 H 
ATOM     91  H2  UNL A   1      16.162  47.858   5.119  1.00  0.00    +0.000 H 
ATOM     92  H3  UNL A   1      17.797  47.690   4.526  1.00  0.00    +0.000 H 
ENDBRANCH    2    1
ENDBRANCH    3    2
ENDBRANCH    9    8
BRANCH    9   10
ATOM     97  H8  UNL A   1      11.934  51.875  10.419  1.00  0.00    +0.000 H 
ATOM     10  C9  UNL A   1      11.394  51.170  11.015  1.00  0.00    +0.000 C 
ATOM     99  H10 UNL A   1      10.462  50.940  10.540  1.00  0.00    +0.000 H 
ATOM     98  H9  UNL A   1      11.208  51.589  11.982  1.00  0.00    +0.000 H 
ENDBRANCH    9   10
ENDBRANCH   11    9
ENDBRANCH   13   11
ENDBRANCH   14   13
ENDBRANCH   15   14
ENDBRANCH   16   15
ENDBRANCH   17   16
ENDBRANCH   18   17
ENDBRANCH   19   18
ENDBRANCH   20   19
ENDBRANCH   21   20
ENDBRANCH   23   21
ENDBRANCH   27   26
BRANCH   31   32
ATOM     33  C27 UNL A   1      17.205  56.156  -0.443  1.00  0.00    +0.000 C 
ATOM     34  F1  UNL A   1      16.012  55.866  -0.982  1.00  0.00    +0.000 F 
ATOM     35  C28 UNL A   1      17.907  57.260  -0.919  1.00  0.00    +0.000 C 
ATOM     36  F2  UNL A   1      17.390  58.006  -1.906  1.00  0.00    +0.000 F 
ATOM     37  C29 UNL A   1      19.140  57.588  -0.377  1.00  0.00    +0.000 C 
ATOM     38  F3  UNL A   1      19.807  58.662  -0.825  1.00  0.00    +0.000 F 
ATOM     39  C30 UNL A   1      19.685  56.802   0.627  1.00  0.00    +0.000 C 
ATOM     40  F4  UNL A   1      20.871  57.126   1.161  1.00  0.00    +0.000 F 
ATOM     41  C31 UNL A   1      18.999  55.680   1.086  1.00  0.00    +0.000 C 
ATOM     42  F5  UNL A   1      19.554  54.937   2.055  1.00  0.00    +0.000 F 
ATOM     32  C26 UNL A   1      17.742  55.340   0.564  1.00  0.00    +0.000 C 
ENDBRANCH   31   32
BRANCH   48   49
ATOM     49  C37 UNL A   1      16.773  48.354  -0.885  1.00  0.00    +0.000 C 
ATOM     50  C38 UNL A   1      18.014  47.730  -0.695  1.00  0.00    +0.000 C 
ATOM     51  F6  UNL A   1      18.787  48.068   0.348  1.00  0.00    +0.000 F 
ATOM     52  C39 UNL A   1      18.484  46.785  -1.602  1.00  0.00    +0.000 C 
ATOM     53  F7  UNL A   1      19.696  46.238  -1.430  1.00  0.00    +0.000 F 
ATOM     54  C40 UNL A   1      17.710  46.422  -2.695  1.00  0.00    +0.000 C 
ATOM     55  F8  UNL A   1      18.164  45.509  -3.564  1.00  0.00    +0.000 F 
ATOM     56  C41 UNL A   1      16.470  47.009  -2.889  1.00  0.00    +0.000 C 
ATOM     57  F9  UNL A   1      15.715  46.651  -3.936  1.00  0.00    +0.000 F 
ATOM     58  C42 UNL A   1      16.009  47.976  -2.000  1.00  0.00    +0.000 C 
ATOM     59  F10 UNL A   1      14.813  48.539  -2.222  1.00  0.00    +0.000 F 
ENDBRANCH   48   49
BRANCH   63   64
ATOM     65  C47 UNL A   1      10.828  47.922   4.111  1.00  0.00    +0.000 C 
ATOM     66  F11 UNL A   1      10.258  48.895   3.384  1.00  0.00    +0.000 F 
ATOM     67  C48 UNL A   1      10.019  46.929   4.658  1.00  0.00    +0.000 C 
ATOM     68  F12 UNL A   1       8.695  46.963   4.459  1.00  0.00    +0.000 F 
ATOM     69  C49 UNL A   1      10.580  45.924   5.431  1.00  0.00    +0.000 C 
ATOM     70  F13 UNL A   1       9.801  44.972   5.963  1.00  0.00    +0.000 F 
ATOM     71  C50 UNL A   1      11.948  45.913   5.661  1.00  0.00    +0.000 C 
ATOM     72  F14 UNL A   1      12.494  44.935   6.397  1.00  0.00    +0.000 F 
ATOM     73  C51 UNL A   1      12.753  46.923   5.138  1.00  0.00    +0.000 C 
ATOM     74  F15 UNL A   1      14.069  46.899   5.397  1.00  0.00    +0.000 F 
ATOM     64  C46 UNL A   1      12.209  47.949   4.354  1.00  0.00    +0.000 C 
ENDBRANCH   63   64
TORSDOF 19
ENDMDL
MODEL 6
REMARK VINA RESULT:      -8.5     46.571     51.220
ROOT
ATOM     27  C22 UNL A   1      53.589  19.658  11.757  1.00  0.00    +0.000 C 
ATOM     28  C23 UNL A   1      54.949  19.024  11.659  1.00  0.00    +0.000 C 
ATOM     29  N3  UNL A   1      55.918  19.001  12.540  1.00  0.00    +0.000 N 
ATOM     30  C24 UNL A   1      56.932  18.244  11.969  1.00  0.00    +0.000 C 
ATOM     31  C25 UNL A   1      58.163  17.969  12.464  1.00  0.00    +0.000 C 
ATOM     43  C32 UNL A   1      58.658  18.457  13.724  1.00  0.00    +0.000 C 
ATOM     44  C33 UNL A   1      59.915  18.289  14.280  1.00  0.00    +0.000 C 
ATOM     45  C34 UNL A   1      59.927  18.913  15.531  1.00  0.00    +0.000 C 
ATOM     46  C35 UNL A   1      58.693  19.509  15.734  1.00  0.00    +0.000 C 
ATOM     47  N4  UNL A   1      57.921  19.214  14.622  1.00  0.00    +0.000 N 
ATOM     48  C36 UNL A   1      58.250  20.290  16.859  1.00  0.00    +0.000 C 
ATOM     60  C43 UNL A   1      57.011  20.823  16.993  1.00  0.00    +0.000 C 
ATOM     61  N5  UNL A   1      55.937  20.768  16.115  1.00  0.00    +0.000 N 
ATOM     62  C44 UNL A   1      54.963  21.422  16.697  1.00  0.00    +0.000 C 
ATOM     63  C45 UNL A   1      53.578  21.720  16.185  1.00  0.00    +0.000 C 
ATOM     75  C52 UNL A   1      53.228  21.303  14.955  1.00  0.00    +0.000 C 
ATOM     76  C53 UNL A   1      51.933  21.531  14.318  1.00  0.00    +0.000 C 
ATOM     77  C54 UNL A   1      51.931  20.947  13.110  1.00  0.00    +0.000 C 
ATOM     78  C55 UNL A   1      53.236  20.329  12.872  1.00  0.00    +0.000 C 
ATOM     79  N6  UNL A   1      53.942  20.593  14.020  1.00  0.00    +0.000 N 
ATOM     80  C56 UNL A   1      55.299  21.933  18.033  1.00  0.00    +0.000 C 
ATOM     81  C57 UNL A   1      56.572  21.584  18.143  1.00  0.00    +0.000 C 
ATOM     82  C58 UNL A   1      56.449  17.789  10.683  1.00  0.00    +0.000 C 
ATOM     83  C59 UNL A   1      55.253  18.296  10.416  1.00  0.00    +0.000 C 
ATOM    116  H27 UNL A   1      60.707  17.790  13.846  1.00  0.00    +0.000 H 
ATOM    117  H28 UNL A   1      60.720  18.926  16.192  1.00  0.00    +0.000 H 
ATOM    118  H29 UNL A   1      56.989  19.500  14.488  1.00  0.00    +0.000 H 
ATOM    119  H30 UNL A   1      51.147  22.057  14.732  1.00  0.00    +0.000 H 
ATOM    120  H31 UNL A   1      51.135  20.936  12.452  1.00  0.00    +0.000 H 
ATOM    121  H32 UNL A   1      54.871  20.299  14.161  1.00  0.00    +0.000 H 
ATOM    122  H33 UNL A   1      54.701  22.435  18.709  1.00  0.00    +0.000 H 
ATOM    123  H34 UNL A   1      57.173  21.823  18.947  1.00  0.00    +0.000 H 
ATOM    124  H35 UNL A   1      56.967  17.154  10.056  1.00  0.00    +0.000 H 
ATOM    125  H36 UNL A   1      54.685  18.204   9.561  1.00  0.00    +0.000 H 
ENDROOT
BRANCH   27   26
ATOM    114  H25 UNL A   1      50.412  17.308   9.357  1.00  0.00    +0.000 H 
ATOM    115  H26 UNL A   1      51.931  17.584  11.230  1.00  0.00    +0.000 H 
ATOM     84  C60 UNL A   1      52.436  20.536   9.719  1.00  0.00    +0.000 C 
ATOM     85  C61 UNL A   1      51.506  20.409   8.688  1.00  0.00    +0.000 C 
ATOM     23  C18 UNL A   1      50.808  19.210   8.523  1.00  0.00    +0.000 C 
ATOM     24  C19 UNL A   1      50.956  18.181   9.458  1.00  0.00    +0.000 C 
ATOM     25  C20 UNL A   1      51.841  18.334  10.527  1.00  0.00    +0.000 C 
ATOM     26  C21 UNL A   1      52.609  19.503  10.652  1.00  0.00    +0.000 C 
ATOM    126  H37 UNL A   1      53.002  21.396   9.796  1.00  0.00    +0.000 H 
ATOM    127  H38 UNL A   1      51.333  21.199   8.047  1.00  0.00    +0.000 H 
BRANCH   23   21
ATOM     21  C17 UNL A   1      49.880  19.006   7.388  1.00  0.00    +0.000 C 
ATOM     22  O3  UNL A   1      49.336  17.915   7.237  1.00  0.00    +0.000 O 
BRANCH   21   20
ATOM    113  H24 UNL A   1      50.304  20.100   5.767  1.00  0.00    +0.000 H 
ATOM     20  N2  UNL A   1      49.645  20.019   6.494  1.00  0.00    +0.000 N 
BRANCH   20   19
ATOM     19  C16 UNL A   1      48.565  20.990   6.463  1.00  0.00    +0.000 C 
ATOM    111  H22 UNL A   1      48.005  20.911   7.372  1.00  0.00    +0.000 H 
ATOM    112  H23 UNL A   1      49.004  21.960   6.355  1.00  0.00    +0.000 H 
BRANCH   19   18
ATOM     18  C15 UNL A   1      47.618  20.777   5.286  1.00  0.00    +0.000 C 
ATOM    109  H20 UNL A   1      46.928  21.594   5.265  1.00  0.00    +0.000 H 
ATOM    110  H21 UNL A   1      48.239  20.717   4.416  1.00  0.00    +0.000 H 
BRANCH   18   17
ATOM     17  C14 UNL A   1      46.812  19.476   5.321  1.00  0.00    +0.000 C 
ATOM    107  H18 UNL A   1      46.913  19.052   6.298  1.00  0.00    +0.000 H 
ATOM    108  H19 UNL A   1      45.809  19.746   5.067  1.00  0.00    +0.000 H 
BRANCH   17   16
ATOM    105  H16 UNL A   1      47.965  18.843   3.655  1.00  0.00    +0.000 H 
ATOM    106  H17 UNL A   1      47.591  17.582   4.870  1.00  0.00    +0.000 H 
ATOM     16  C13 UNL A   1      47.230  18.411   4.300  1.00  0.00    +0.000 C 
BRANCH   16   15
ATOM    103  H14 UNL A   1      46.504  17.099   2.795  1.00  0.00    +0.000 H 
ATOM     15  C12 UNL A   1      46.098  17.861   3.426  1.00  0.00    +0.000 C 
ATOM    104  H15 UNL A   1      45.348  17.497   4.096  1.00  0.00    +0.000 H 
BRANCH   15   14
ATOM    102  H13 UNL A   1      45.935  18.932   1.604  1.00  0.00    +0.000 H 
ATOM    101  H12 UNL A   1      45.449  19.849   3.028  1.00  0.00    +0.000 H 
ATOM     14  C11 UNL A   1      45.417  18.898   2.539  1.00  0.00    +0.000 C 
BRANCH   14   13
ATOM    100  H11 UNL A   1      43.893  17.657   1.893  1.00  0.00    +0.000 H 
ATOM     13  N1  UNL A   1      44.035  18.552   2.278  1.00  0.00    +0.000 N 
BRANCH   13   11
ATOM     11  C10 UNL A   1      42.902  19.280   2.488  1.00  0.00    +0.000 C 
ATOM     12  O2  UNL A   1      43.017  20.510   2.525  1.00  0.00    +0.000 O 
BRANCH   11    9
ATOM      9  C8  UNL A   1      41.529  18.617   2.659  1.00  0.00    +0.000 C 
ATOM     96  H7  UNL A   1      41.498  17.695   2.117  1.00  0.00    +0.000 H 
BRANCH    9    8
ATOM    129  H40 UNL A   1      39.370  20.648  -0.961  1.00  0.00    +0.000 H 
ATOM    130  H41 UNL A   1      37.085  21.550  -0.794  1.00  0.00    +0.000 H 
ATOM      3  C2  UNL A   1      35.991  21.708   0.999  1.00  0.00    +0.000 C 
ATOM      4  C3  UNL A   1      35.972  21.413   2.360  1.00  0.00    +0.000 C 
ATOM      5  C4  UNL A   1      37.070  20.780   2.946  1.00  0.00    +0.000 C 
ATOM      6  C5  UNL A   1      38.194  20.434   2.178  1.00  0.00    +0.000 C 
ATOM      7  C6  UNL A   1      39.296  19.773   2.746  1.00  0.00    +0.000 C 
ATOM      8  C7  UNL A   1      40.423  19.416   1.981  1.00  0.00    +0.000 C 
ATOM     86  C62 UNL A   1      40.445  19.780   0.631  1.00  0.00    +0.000 C 
ATOM     87  C63 UNL A   1      39.345  20.414   0.043  1.00  0.00    +0.000 C 
ATOM     88  C64 UNL A   1      38.211  20.737   0.801  1.00  0.00    +0.000 C 
ATOM     89  C65 UNL A   1      37.092  21.356   0.220  1.00  0.00    +0.000 C 
ATOM     93  H4  UNL A   1      35.149  21.661   2.932  1.00  0.00    +0.000 H 
ATOM     94  H5  UNL A   1      37.056  20.565   3.956  1.00  0.00    +0.000 H 
ATOM     95  H6  UNL A   1      39.278  19.544   3.752  1.00  0.00    +0.000 H 
ATOM    128  H39 UNL A   1      41.282  19.578   0.062  1.00  0.00    +0.000 H 
BRANCH    3    2
ATOM      2  O1  UNL A   1      34.933  22.281   0.349  1.00  0.00    +0.000 O 
BRANCH    2    1
ATOM      1  C1  UNL A   1      35.324  22.922  -0.864  1.00  0.00    +0.000 C 
ATOM     90  H1  UNL A   1      35.950  23.760  -0.639  1.00  0.00    +0.000 H 
ATOM     91  H2  UNL A   1      34.452  23.257  -1.386  1.00  0.00    +0.000 H 
ATOM     92  H3  UNL A   1      35.861  22.228  -1.476  1.00  0.00    +0.000 H 
ENDBRANCH    2    1
ENDBRANCH    3    2
ENDBRANCH    9    8
BRANCH    9   10
ATOM     97  H8  UNL A   1      41.723  17.183   4.236  1.00  0.00    +0.000 H 
ATOM     10  C9  UNL A   1      41.306  18.158   4.104  1.00  0.00    +0.000 C 
ATOM     99  H10 UNL A   1      41.781  18.844   4.774  1.00  0.00    +0.000 H 
ATOM     98  H9  UNL A   1      40.256  18.128   4.309  1.00  0.00    +0.000 H 
ENDBRANCH    9   10
ENDBRANCH   11    9
ENDBRANCH   13   11
ENDBRANCH   14   13
ENDBRANCH   15   14
ENDBRANCH   16   15
ENDBRANCH   17   16
ENDBRANCH   18   17
ENDBRANCH   19   18
ENDBRANCH   20   19
ENDBRANCH   21   20
ENDBRANCH   23   21
ENDBRANCH   27   26
BRANCH   31   32
ATOM     33  C27 UNL A   1      59.956  17.659  10.700  1.00  0.00    +0.000 C 
ATOM     34  F1  UNL A   1      59.949  18.978  10.461  1.00  0.00    +0.000 F 
ATOM     35  C28 UNL A   1      60.833  16.851   9.981  1.00  0.00    +0.000 C 
ATOM     36  F2  UNL A   1      61.643  17.396   9.063  1.00  0.00    +0.000 F 
ATOM     37  C29 UNL A   1      60.868  15.484  10.210  1.00  0.00    +0.000 C 
ATOM     38  F3  UNL A   1      61.724  14.709   9.529  1.00  0.00    +0.000 F 
ATOM     39  C30 UNL A   1      60.012  14.917  11.143  1.00  0.00    +0.000 C 
ATOM     40  F4  UNL A   1      60.054  13.598  11.375  1.00  0.00    +0.000 F 
ATOM     41  C31 UNL A   1      59.114  15.719  11.844  1.00  0.00    +0.000 C 
ATOM     42  F5  UNL A   1      58.295  15.142  12.736  1.00  0.00    +0.000 F 
ATOM     32  C26 UNL A   1      59.074  17.106  11.640  1.00  0.00    +0.000 C 
ENDBRANCH   31   32
BRANCH   48   49
ATOM     49  C37 UNL A   1      59.238  20.562  17.955  1.00  0.00    +0.000 C 
ATOM     50  C38 UNL A   1      59.441  19.658  19.008  1.00  0.00    +0.000 C 
ATOM     51  F6  UNL A   1      58.714  18.532  19.079  1.00  0.00    +0.000 F 
ATOM     52  C39 UNL A   1      60.362  19.929  20.015  1.00  0.00    +0.000 C 
ATOM     53  F7  UNL A   1      60.504  19.075  21.039  1.00  0.00    +0.000 F 
ATOM     54  C40 UNL A   1      61.122  21.089  19.971  1.00  0.00    +0.000 C 
ATOM     55  F8  UNL A   1      62.011  21.346  20.939  1.00  0.00    +0.000 F 
ATOM     56  C41 UNL A   1      60.954  21.985  18.927  1.00  0.00    +0.000 C 
ATOM     57  F9  UNL A   1      61.695  23.100  18.876  1.00  0.00    +0.000 F 
ATOM     58  C42 UNL A   1      60.012  21.732  17.934  1.00  0.00    +0.000 C 
ATOM     59  F10 UNL A   1      59.860  22.625  16.945  1.00  0.00    +0.000 F 
ENDBRANCH   48   49
BRANCH   63   64
ATOM     65  C47 UNL A   1      51.799  21.848  17.956  1.00  0.00    +0.000 C 
ATOM     66  F11 UNL A   1      51.887  20.519  18.119  1.00  0.00    +0.000 F 
ATOM     67  C48 UNL A   1      50.849  22.554  18.690  1.00  0.00    +0.000 C 
ATOM     68  F12 UNL A   1      50.040  21.903  19.535  1.00  0.00    +0.000 F 
ATOM     69  C49 UNL A   1      50.724  23.926  18.525  1.00  0.00    +0.000 C 
ATOM     70  F13 UNL A   1      49.805  24.604  19.226  1.00  0.00    +0.000 F 
ATOM     71  C50 UNL A   1      51.542  24.589  17.623  1.00  0.00    +0.000 C 
ATOM     72  F14 UNL A   1      51.430  25.916  17.471  1.00  0.00    +0.000 F 
ATOM     73  C51 UNL A   1      52.471  23.878  16.867  1.00  0.00    +0.000 C 
ATOM     74  F15 UNL A   1      53.233  24.543  15.985  1.00  0.00    +0.000 F 
ATOM     64  C46 UNL A   1      52.617  22.492  17.017  1.00  0.00    +0.000 C 
ENDBRANCH   63   64
TORSDOF 19
ENDMDL
MODEL 7
REMARK VINA RESULT:      -8.3     44.507     47.547
ROOT
ATOM     27  C22 UNL A   1      24.707  38.918  46.904  1.00  0.00    +0.000 C 
ATOM     28  C23 UNL A   1      23.975  37.615  46.735  1.00  0.00    +0.000 C 
ATOM     29  N3  UNL A   1      22.755  37.298  47.093  1.00  0.00    +0.000 N 
ATOM     30  C24 UNL A   1      22.560  35.993  46.662  1.00  0.00    +0.000 C 
ATOM     31  C25 UNL A   1      21.478  35.198  46.837  1.00  0.00    +0.000 C 
ATOM     43  C32 UNL A   1      20.291  35.588  47.552  1.00  0.00    +0.000 C 
ATOM     44  C33 UNL A   1      19.170  34.829  47.841  1.00  0.00    +0.000 C 
ATOM     45  C34 UNL A   1      18.259  35.638  48.528  1.00  0.00    +0.000 C 
ATOM     46  C35 UNL A   1      18.833  36.886  48.708  1.00  0.00    +0.000 C 
ATOM     47  N4  UNL A   1      20.076  36.845  48.097  1.00  0.00    +0.000 N 
ATOM     48  C36 UNL A   1      18.289  38.032  49.387  1.00  0.00    +0.000 C 
ATOM     60  C43 UNL A   1      18.907  39.232  49.501  1.00  0.00    +0.000 C 
ATOM     61  N5  UNL A   1      20.158  39.618  49.037  1.00  0.00    +0.000 N 
ATOM     62  C44 UNL A   1      20.300  40.872  49.384  1.00  0.00    +0.000 C 
ATOM     63  C45 UNL A   1      21.477  41.789  49.181  1.00  0.00    +0.000 C 
ATOM     75  C52 UNL A   1      22.584  41.314  48.581  1.00  0.00    +0.000 C 
ATOM     76  C53 UNL A   1      23.806  42.074  48.331  1.00  0.00    +0.000 C 
ATOM     77  C54 UNL A   1      24.685  41.290  47.688  1.00  0.00    +0.000 C 
ATOM     78  C55 UNL A   1      24.101  39.960  47.507  1.00  0.00    +0.000 C 
ATOM     79  N6  UNL A   1      22.853  40.067  48.070  1.00  0.00    +0.000 N 
ATOM     80  C56 UNL A   1      19.133  41.438  50.076  1.00  0.00    +0.000 C 
ATOM     81  C57 UNL A   1      18.335  40.384  50.165  1.00  0.00    +0.000 C 
ATOM     82  C58 UNL A   1      23.770  35.587  45.979  1.00  0.00    +0.000 C 
ATOM     83  C59 UNL A   1      24.698  36.531  46.052  1.00  0.00    +0.000 C 
ATOM    116  H27 UNL A   1      19.029  33.837  47.592  1.00  0.00    +0.000 H 
ATOM    117  H28 UNL A   1      17.319  35.354  48.846  1.00  0.00    +0.000 H 
ATOM    118  H29 UNL A   1      20.711  37.595  48.056  1.00  0.00    +0.000 H 
ATOM    119  H30 UNL A   1      23.967  43.056  48.606  1.00  0.00    +0.000 H 
ATOM    120  H31 UNL A   1      25.624  41.579  47.371  1.00  0.00    +0.000 H 
ATOM    121  H32 UNL A   1      22.211  39.321  48.103  1.00  0.00    +0.000 H 
ATOM    122  H33 UNL A   1      18.976  42.403  50.408  1.00  0.00    +0.000 H 
ATOM    123  H34 UNL A   1      17.422  40.384  50.645  1.00  0.00    +0.000 H 
ATOM    124  H35 UNL A   1      23.894  34.682  45.500  1.00  0.00    +0.000 H 
ATOM    125  H36 UNL A   1      25.673  36.511  45.718  1.00  0.00    +0.000 H 
ENDROOT
BRANCH   27   26
ATOM    114  H25 UNL A   1      29.108  37.619  46.335  1.00  0.00    +0.000 H 
ATOM    115  H26 UNL A   1      26.847  37.277  47.149  1.00  0.00    +0.000 H 
ATOM     84  C60 UNL A   1      26.390  40.203  45.573  1.00  0.00    +0.000 C 
ATOM     85  C61 UNL A   1      27.669  40.360  45.041  1.00  0.00    +0.000 C 
ATOM     23  C18 UNL A   1      28.675  39.446  45.364  1.00  0.00    +0.000 C 
ATOM     24  C19 UNL A   1      28.372  38.314  46.126  1.00  0.00    +0.000 C 
ATOM     25  C20 UNL A   1      27.075  38.125  46.608  1.00  0.00    +0.000 C 
ATOM     26  C21 UNL A   1      26.078  39.082  46.357  1.00  0.00    +0.000 C 
ATOM    126  H37 UNL A   1      25.667  40.918  45.391  1.00  0.00    +0.000 H 
ATOM    127  H38 UNL A   1      27.872  41.149  44.408  1.00  0.00    +0.000 H 
BRANCH   23   21
ATOM     21  C17 UNL A   1      30.065  39.629  44.891  1.00  0.00    +0.000 C 
ATOM     22  O3  UNL A   1      30.586  40.740  44.949  1.00  0.00    +0.000 O 
BRANCH   21   20
ATOM    113  H24 UNL A   1      31.182  37.974  45.031  1.00  0.00    +0.000 H 
ATOM     20  N2  UNL A   1      30.764  38.571  44.368  1.00  0.00    +0.000 N 
BRANCH   20   19
ATOM     19  C16 UNL A   1      30.978  38.201  42.980  1.00  0.00    +0.000 C 
ATOM    111  H22 UNL A   1      30.327  38.786  42.364  1.00  0.00    +0.000 H 
ATOM    112  H23 UNL A   1      32.007  38.385  42.750  1.00  0.00    +0.000 H 
BRANCH   19   18
ATOM     18  C15 UNL A   1      30.701  36.724  42.717  1.00  0.00    +0.000 C 
ATOM    109  H20 UNL A   1      30.493  36.607  41.674  1.00  0.00    +0.000 H 
ATOM    110  H21 UNL A   1      31.576  36.198  43.041  1.00  0.00    +0.000 H 
BRANCH   18   17
ATOM     17  C14 UNL A   1      29.533  36.126  43.504  1.00  0.00    +0.000 C 
ATOM    107  H18 UNL A   1      29.882  35.898  44.489  1.00  0.00    +0.000 H 
ATOM    108  H19 UNL A   1      28.756  36.861  43.479  1.00  0.00    +0.000 H 
BRANCH   17   16
ATOM    105  H16 UNL A   1      28.781  35.007  41.864  1.00  0.00    +0.000 H 
ATOM    106  H17 UNL A   1      29.604  34.062  43.143  1.00  0.00    +0.000 H 
ATOM     16  C13 UNL A   1      28.921  34.851  42.913  1.00  0.00    +0.000 C 
BRANCH   16   15
ATOM    103  H14 UNL A   1      27.055  35.314  43.819  1.00  0.00    +0.000 H 
ATOM     15  C12 UNL A   1      27.575  34.431  43.512  1.00  0.00    +0.000 C 
ATOM    104  H15 UNL A   1      27.062  33.884  42.749  1.00  0.00    +0.000 H 
BRANCH   15   14
ATOM    102  H13 UNL A   1      28.704  33.229  44.845  1.00  0.00    +0.000 H 
ATOM    101  H12 UNL A   1      27.074  32.633  44.536  1.00  0.00    +0.000 H 
ATOM     14  C11 UNL A   1      27.677  33.499  44.716  1.00  0.00    +0.000 C 
BRANCH   14   13
ATOM    100  H11 UNL A   1      27.281  35.126  45.930  1.00  0.00    +0.000 H 
ATOM     13  N1  UNL A   1      27.222  34.144  45.930  1.00  0.00    +0.000 N 
BRANCH   13   11
ATOM     11  C10 UNL A   1      26.725  33.592  47.073  1.00  0.00    +0.000 C 
ATOM     12  O2  UNL A   1      25.765  32.822  46.960  1.00  0.00    +0.000 O 
BRANCH   11    9
ATOM      9  C8  UNL A   1      27.327  33.895  48.451  1.00  0.00    +0.000 C 
ATOM     96  H7  UNL A   1      27.135  33.082  49.120  1.00  0.00    +0.000 H 
BRANCH    9    8
ATOM    129  H40 UNL A   1      26.957  38.207  50.232  1.00  0.00    +0.000 H 
ATOM    130  H41 UNL A   1      24.801  39.153  50.951  1.00  0.00    +0.000 H 
ATOM      3  C2  UNL A   1      22.997  38.072  51.055  1.00  0.00    +0.000 C 
ATOM      4  C3  UNL A   1      22.371  36.858  50.786  1.00  0.00    +0.000 C 
ATOM      5  C4  UNL A   1      23.113  35.801  50.255  1.00  0.00    +0.000 C 
ATOM      6  C5  UNL A   1      24.483  35.948  49.985  1.00  0.00    +0.000 C 
ATOM      7  C6  UNL A   1      25.237  34.903  49.426  1.00  0.00    +0.000 C 
ATOM      8  C7  UNL A   1      26.610  35.047  49.145  1.00  0.00    +0.000 C 
ATOM     86  C62 UNL A   1      27.229  36.255  49.484  1.00  0.00    +0.000 C 
ATOM     87  C63 UNL A   1      26.487  37.314  50.017  1.00  0.00    +0.000 C 
ATOM     88  C64 UNL A   1      25.114  37.179  50.262  1.00  0.00    +0.000 C 
ATOM     89  C65 UNL A   1      24.353  38.240  50.778  1.00  0.00    +0.000 C 
ATOM     93  H4  UNL A   1      21.364  36.740  50.978  1.00  0.00    +0.000 H 
ATOM     94  H5  UNL A   1      22.648  34.899  50.059  1.00  0.00    +0.000 H 
ATOM     95  H6  UNL A   1      24.773  34.007  49.215  1.00  0.00    +0.000 H 
ATOM    128  H39 UNL A   1      28.245  36.365  49.339  1.00  0.00    +0.000 H 
BRANCH    3    2
ATOM      2  O1  UNL A   1      22.324  39.165  51.529  1.00  0.00    +0.000 O 
BRANCH    2    1
ATOM      1  C1  UNL A   1      21.264  38.807  52.413  1.00  0.00    +0.000 C 
ATOM     90  H1  UNL A   1      21.274  37.750  52.574  1.00  0.00    +0.000 H 
ATOM     91  H2  UNL A   1      20.328  39.094  51.981  1.00  0.00    +0.000 H 
ATOM     92  H3  UNL A   1      21.394  39.312  53.348  1.00  0.00    +0.000 H 
ENDBRANCH    2    1
ENDBRANCH    3    2
ENDBRANCH    9    8
BRANCH    9   10
ATOM     97  H8  UNL A   1      29.238  34.318  49.318  1.00  0.00    +0.000 H 
ATOM     10  C9  UNL A   1      28.858  33.925  48.399  1.00  0.00    +0.000 C 
ATOM     99  H10 UNL A   1      29.230  32.932  48.255  1.00  0.00    +0.000 H 
ATOM     98  H9  UNL A   1      29.174  34.546  47.587  1.00  0.00    +0.000 H 
ENDBRANCH    9   10
ENDBRANCH   11    9
ENDBRANCH   13   11
ENDBRANCH   14   13
ENDBRANCH   15   14
ENDBRANCH   16   15
ENDBRANCH   17   16
ENDBRANCH   18   17
ENDBRANCH   19   18
ENDBRANCH   20   19
ENDBRANCH   21   20
ENDBRANCH   23   21
ENDBRANCH   27   26
BRANCH   31   32
ATOM     33  C27 UNL A   1      22.117  32.747  46.940  1.00  0.00    +0.000 C 
ATOM     34  F1  UNL A   1      22.735  32.959  48.111  1.00  0.00    +0.000 F 
ATOM     35  C28 UNL A   1      22.103  31.460  46.411  1.00  0.00    +0.000 C 
ATOM     36  F2  UNL A   1      22.709  30.461  47.068  1.00  0.00    +0.000 F 
ATOM     37  C29 UNL A   1      21.467  31.209  45.205  1.00  0.00    +0.000 C 
ATOM     38  F3  UNL A   1      21.440  29.965  44.705  1.00  0.00    +0.000 F 
ATOM     39  C30 UNL A   1      20.861  32.248  44.514  1.00  0.00    +0.000 C 
ATOM     40  F4  UNL A   1      20.234  32.005  43.355  1.00  0.00    +0.000 F 
ATOM     41  C31 UNL A   1      20.897  33.543  45.027  1.00  0.00    +0.000 C 
ATOM     42  F5  UNL A   1      20.308  34.527  44.333  1.00  0.00    +0.000 F 
ATOM     32  C26 UNL A   1      21.521  33.815  46.254  1.00  0.00    +0.000 C 
ENDBRANCH   31   32
BRANCH   48   49
ATOM     49  C37 UNL A   1      16.948  37.884  50.045  1.00  0.00    +0.000 C 
ATOM     50  C38 UNL A   1      15.766  37.785  49.298  1.00  0.00    +0.000 C 
ATOM     51  F6  UNL A   1      15.805  37.862  47.959  1.00  0.00    +0.000 F 
ATOM     52  C39 UNL A   1      14.532  37.648  49.928  1.00  0.00    +0.000 C 
ATOM     53  F7  UNL A   1      13.409  37.606  49.197  1.00  0.00    +0.000 F 
ATOM     54  C40 UNL A   1      14.460  37.574  51.311  1.00  0.00    +0.000 C 
ATOM     55  F8  UNL A   1      13.272  37.438  51.915  1.00  0.00    +0.000 F 
ATOM     56  C41 UNL A   1      15.619  37.646  52.068  1.00  0.00    +0.000 C 
ATOM     57  F9  UNL A   1      15.553  37.562  53.404  1.00  0.00    +0.000 F 
ATOM     58  C42 UNL A   1      16.851  37.813  51.444  1.00  0.00    +0.000 C 
ATOM     59  F10 UNL A   1      17.954  37.897  52.203  1.00  0.00    +0.000 F 
ENDBRANCH   48   49
BRANCH   63   64
ATOM     65  C47 UNL A   1      21.034  44.235  48.810  1.00  0.00    +0.000 C 
ATOM     66  F11 UNL A   1      20.680  43.964  47.545  1.00  0.00    +0.000 F 
ATOM     67  C48 UNL A   1      21.052  45.561  49.233  1.00  0.00    +0.000 C 
ATOM     68  F12 UNL A   1      20.727  46.540  48.379  1.00  0.00    +0.000 F 
ATOM     69  C49 UNL A   1      21.434  45.871  50.531  1.00  0.00    +0.000 C 
ATOM     70  F13 UNL A   1      21.459  47.148  50.936  1.00  0.00    +0.000 F 
ATOM     71  C50 UNL A   1      21.802  44.857  51.401  1.00  0.00    +0.000 C 
ATOM     72  F14 UNL A   1      22.160  45.152  52.658  1.00  0.00    +0.000 F 
ATOM     73  C51 UNL A   1      21.813  43.532  50.968  1.00  0.00    +0.000 C 
ATOM     74  F15 UNL A   1      22.196  42.574  51.826  1.00  0.00    +0.000 F 
ATOM     64  C46 UNL A   1      21.430  43.195  49.663  1.00  0.00    +0.000 C 
ENDBRANCH   63   64
TORSDOF 19
ENDMDL
MODEL 8
REMARK VINA RESULT:      -8.3     47.085     51.720
ROOT
ATOM     27  C22 UNL A   1      53.284  19.921  11.692  1.00  0.00    +0.000 C 
ATOM     28  C23 UNL A   1      54.636  19.278  11.544  1.00  0.00    +0.000 C 
ATOM     29  N3  UNL A   1      55.627  19.228  12.399  1.00  0.00    +0.000 N 
ATOM     30  C24 UNL A   1      56.620  18.477  11.784  1.00  0.00    +0.000 C 
ATOM     31  C25 UNL A   1      57.861  18.182  12.240  1.00  0.00    +0.000 C 
ATOM     43  C32 UNL A   1      58.393  18.637  13.498  1.00  0.00    +0.000 C 
ATOM     44  C33 UNL A   1      59.663  18.447  14.017  1.00  0.00    +0.000 C 
ATOM     45  C34 UNL A   1      59.712  19.042  15.282  1.00  0.00    +0.000 C 
ATOM     46  C35 UNL A   1      58.488  19.641  15.531  1.00  0.00    +0.000 C 
ATOM     47  N4  UNL A   1      57.685  19.378  14.432  1.00  0.00    +0.000 N 
ATOM     48  C36 UNL A   1      58.080  20.399  16.684  1.00  0.00    +0.000 C 
ATOM     60  C43 UNL A   1      56.850  20.938  16.863  1.00  0.00    +0.000 C 
ATOM     61  N5  UNL A   1      55.753  20.911  16.012  1.00  0.00    +0.000 N 
ATOM     62  C44 UNL A   1      54.799  21.558  16.634  1.00  0.00    +0.000 C 
ATOM     63  C45 UNL A   1      53.404  21.879  16.166  1.00  0.00    +0.000 C 
ATOM     75  C52 UNL A   1      53.018  21.493  14.935  1.00  0.00    +0.000 C 
ATOM     76  C53 UNL A   1      51.710  21.745  14.338  1.00  0.00    +0.000 C 
ATOM     77  C54 UNL A   1      51.672  21.189  13.117  1.00  0.00    +0.000 C 
ATOM     78  C55 UNL A   1      52.966  20.567  12.831  1.00  0.00    +0.000 C 
ATOM     79  N6  UNL A   1      53.702  20.799  13.966  1.00  0.00    +0.000 N 
ATOM     80  C56 UNL A   1      55.173  22.036  17.972  1.00  0.00    +0.000 C 
ATOM     81  C57 UNL A   1      56.446  21.675  18.041  1.00  0.00    +0.000 C 
ATOM     82  C58 UNL A   1      56.100  18.056  10.501  1.00  0.00    +0.000 C 
ATOM     83  C59 UNL A   1      54.902  18.577  10.278  1.00  0.00    +0.000 C 
ATOM    116  H27 UNL A   1      60.439  17.953  13.551  1.00  0.00    +0.000 H 
ATOM    117  H28 UNL A   1      60.521  19.034  15.922  1.00  0.00    +0.000 H 
ATOM    118  H29 UNL A   1      56.752  19.673  14.330  1.00  0.00    +0.000 H 
ATOM    119  H30 UNL A   1      50.939  22.267  14.784  1.00  0.00    +0.000 H 
ATOM    120  H31 UNL A   1      50.858  21.199  12.481  1.00  0.00    +0.000 H 
ATOM    121  H32 UNL A   1      54.633  20.496  14.076  1.00  0.00    +0.000 H 
ATOM    122  H33 UNL A   1      54.597  22.526  18.675  1.00  0.00    +0.000 H 
ATOM    123  H34 UNL A   1      57.070  21.891  18.834  1.00  0.00    +0.000 H 
ATOM    124  H35 UNL A   1      56.597  17.432   9.846  1.00  0.00    +0.000 H 
ATOM    125  H36 UNL A   1      54.311  18.510   9.436  1.00  0.00    +0.000 H 
ENDROOT
BRANCH   27   26
ATOM    114  H25 UNL A   1      50.019  17.655   9.330  1.00  0.00    +0.000 H 
ATOM    115  H26 UNL A   1      51.588  17.876  11.168  1.00  0.00    +0.000 H 
ATOM     84  C60 UNL A   1      52.090  20.851   9.701  1.00  0.00    +0.000 C 
ATOM     85  C61 UNL A   1      51.133  20.754   8.692  1.00  0.00    +0.000 C 
ATOM     23  C18 UNL A   1      50.416  19.567   8.522  1.00  0.00    +0.000 C 
ATOM     24  C19 UNL A   1      50.575  18.519   9.433  1.00  0.00    +0.000 C 
ATOM     25  C20 UNL A   1      51.490  18.640  10.483  1.00  0.00    +0.000 C 
ATOM     26  C21 UNL A   1      52.274  19.798  10.610  1.00  0.00    +0.000 C 
ATOM    126  H37 UNL A   1      52.668  21.703   9.780  1.00  0.00    +0.000 H 
ATOM    127  H38 UNL A   1      50.954  21.559   8.071  1.00  0.00    +0.000 H 
BRANCH   23   21
ATOM     21  C17 UNL A   1      49.458  19.396   7.408  1.00  0.00    +0.000 C 
ATOM     22  O3  UNL A   1      48.272  19.662   7.580  1.00  0.00    +0.000 O 
BRANCH   21   20
ATOM    113  H24 UNL A   1      49.273  19.088   5.439  1.00  0.00    +0.000 H 
ATOM     20  N2  UNL A   1      49.884  18.921   6.194  1.00  0.00    +0.000 N 
BRANCH   20   19
ATOM     19  C16 UNL A   1      51.105  18.210   5.857  1.00  0.00    +0.000 C 
ATOM    111  H22 UNL A   1      51.608  18.742   5.076  1.00  0.00    +0.000 H 
ATOM    112  H23 UNL A   1      51.702  18.154   6.743  1.00  0.00    +0.000 H 
BRANCH   19   18
ATOM     18  C15 UNL A   1      50.841  16.784   5.385  1.00  0.00    +0.000 C 
ATOM    109  H20 UNL A   1      51.277  16.670   4.414  1.00  0.00    +0.000 H 
ATOM    110  H21 UNL A   1      51.274  16.143   6.126  1.00  0.00    +0.000 H 
BRANCH   18   17
ATOM     17  C14 UNL A   1      49.366  16.386   5.292  1.00  0.00    +0.000 C 
ATOM    107  H18 UNL A   1      48.991  16.278   6.288  1.00  0.00    +0.000 H 
ATOM    108  H19 UNL A   1      48.889  17.162   4.731  1.00  0.00    +0.000 H 
BRANCH   17   16
ATOM    105  H16 UNL A   1      49.995  14.744   4.103  1.00  0.00    +0.000 H 
ATOM    106  H17 UNL A   1      48.665  14.410   5.256  1.00  0.00    +0.000 H 
ATOM     16  C13 UNL A   1      49.078  15.085   4.536  1.00  0.00    +0.000 C 
BRANCH   16   15
ATOM    103  H14 UNL A   1      48.109  16.170   2.988  1.00  0.00    +0.000 H 
ATOM     15  C12 UNL A   1      48.039  15.193   3.416  1.00  0.00    +0.000 C 
ATOM    104  H15 UNL A   1      48.262  14.411   2.720  1.00  0.00    +0.000 H 
BRANCH   15   14
ATOM    102  H13 UNL A   1      46.593  14.818   4.921  1.00  0.00    +0.000 H 
ATOM    101  H12 UNL A   1      46.200  14.122   3.350  1.00  0.00    +0.000 H 
ATOM     14  C11 UNL A   1      46.596  14.973   3.862  1.00  0.00    +0.000 C 
BRANCH   14   13
ATOM    100  H11 UNL A   1      45.552  16.256   2.619  1.00  0.00    +0.000 H 
ATOM     13  N1  UNL A   1      45.767  16.124   3.571  1.00  0.00    +0.000 N 
BRANCH   13   11
ATOM     11  C10 UNL A   1      45.240  17.052   4.419  1.00  0.00    +0.000 C 
ATOM     12  O2  UNL A   1      44.596  16.634   5.388  1.00  0.00    +0.000 O 
BRANCH   11    9
ATOM      9  C8  UNL A   1      45.437  18.558   4.203  1.00  0.00    +0.000 C 
ATOM     96  H7  UNL A   1      45.168  19.093   5.090  1.00  0.00    +0.000 H 
BRANCH    9    8
ATOM    129  H40 UNL A   1      44.190  20.865   0.327  1.00  0.00    +0.000 H 
ATOM    130  H41 UNL A   1      41.886  20.833  -0.540  1.00  0.00    +0.000 H 
ATOM      3  C2  UNL A   1      40.242  19.986   0.467  1.00  0.00    +0.000 C 
ATOM      4  C3  UNL A   1      39.832  19.251   1.577  1.00  0.00    +0.000 C 
ATOM      5  C4  UNL A   1      40.771  18.861   2.534  1.00  0.00    +0.000 C 
ATOM      6  C5  UNL A   1      42.126  19.199   2.390  1.00  0.00    +0.000 C 
ATOM      7  C6  UNL A   1      43.089  18.793   3.329  1.00  0.00    +0.000 C 
ATOM      8  C7  UNL A   1      44.451  19.121   3.187  1.00  0.00    +0.000 C 
ATOM     86  C62 UNL A   1      44.827  19.914   2.098  1.00  0.00    +0.000 C 
ATOM     87  C63 UNL A   1      43.886  20.305   1.139  1.00  0.00    +0.000 C 
ATOM     88  C64 UNL A   1      42.537  19.946   1.266  1.00  0.00    +0.000 C 
ATOM     89  C65 UNL A   1      41.586  20.315   0.301  1.00  0.00    +0.000 C 
ATOM     93  H4  UNL A   1      38.839  18.995   1.691  1.00  0.00    +0.000 H 
ATOM     94  H5  UNL A   1      40.466  18.319   3.358  1.00  0.00    +0.000 H 
ATOM     95  H6  UNL A   1      42.789  18.239   4.146  1.00  0.00    +0.000 H 
ATOM    128  H39 UNL A   1      45.810  20.214   2.000  1.00  0.00    +0.000 H 
BRANCH    3    2
ATOM      2  O1  UNL A   1      39.387  20.358  -0.533  1.00  0.00    +0.000 O 
BRANCH    2    1
ATOM      1  C1  UNL A   1      38.085  20.675  -0.044  1.00  0.00    +0.000 C 
ATOM     90  H1  UNL A   1      37.875  20.083   0.822  1.00  0.00    +0.000 H 
ATOM     91  H2  UNL A   1      37.360  20.468  -0.803  1.00  0.00    +0.000 H 
ATOM     92  H3  UNL A   1      38.045  21.713   0.215  1.00  0.00    +0.000 H 
ENDBRANCH    2    1
ENDBRANCH    3    2
ENDBRANCH    9    8
BRANCH    9   10
ATOM     97  H8  UNL A   1      47.350  18.299   3.276  1.00  0.00    +0.000 H 
ATOM     10  C9  UNL A   1      46.919  18.911   4.041  1.00  0.00    +0.000 C 
ATOM     99  H10 UNL A   1      47.013  19.942   3.769  1.00  0.00    +0.000 H 
ATOM     98  H9  UNL A   1      47.429  18.738   4.966  1.00  0.00    +0.000 H 
ENDBRANCH    9   10
ENDBRANCH   11    9
ENDBRANCH   13   11
ENDBRANCH   14   13
ENDBRANCH   15   14
ENDBRANCH   16   15
ENDBRANCH   17   16
ENDBRANCH   18   17
ENDBRANCH   19   18
ENDBRANCH   20   19
ENDBRANCH   21   20
ENDBRANCH   23   21
ENDBRANCH   27   26
BRANCH   31   32
ATOM     33  C27 UNL A   1      59.611  17.900  10.429  1.00  0.00    +0.000 C 
ATOM     34  F1  UNL A   1      59.613  19.225  10.225  1.00  0.00    +0.000 F 
ATOM     35  C28 UNL A   1      60.462  17.102   9.669  1.00  0.00    +0.000 C 
ATOM     36  F2  UNL A   1      61.258  17.663   8.747  1.00  0.00    +0.000 F 
ATOM     37  C29 UNL A   1      60.487  15.729   9.860  1.00  0.00    +0.000 C 
ATOM     38  F3  UNL A   1      61.319  14.964   9.139  1.00  0.00    +0.000 F 
ATOM     39  C30 UNL A   1      59.645  15.147  10.797  1.00  0.00    +0.000 C 
ATOM     40  F4  UNL A   1      59.678  13.822  10.993  1.00  0.00    +0.000 F 
ATOM     41  C31 UNL A   1      58.772  15.939  11.540  1.00  0.00    +0.000 C 
ATOM     42  F5  UNL A   1      57.967  15.347  12.434  1.00  0.00    +0.000 F 
ATOM     32  C26 UNL A   1      58.744  17.332  11.374  1.00  0.00    +0.000 C 
ENDBRANCH   31   32
BRANCH   48   49
ATOM     49  C37 UNL A   1      59.099  20.638  17.760  1.00  0.00    +0.000 C 
ATOM     50  C38 UNL A   1      59.345  19.694  18.767  1.00  0.00    +0.000 C 
ATOM     51  F6  UNL A   1      58.635  18.556  18.813  1.00  0.00    +0.000 F 
ATOM     52  C39 UNL A   1      60.294  19.935  19.756  1.00  0.00    +0.000 C 
ATOM     53  F7  UNL A   1      60.477  19.041  20.738  1.00  0.00    +0.000 F 
ATOM     54  C40 UNL A   1      61.037  21.106  19.738  1.00  0.00    +0.000 C 
ATOM     55  F8  UNL A   1      61.953  21.334  20.689  1.00  0.00    +0.000 F 
ATOM     56  C41 UNL A   1      60.827  22.043  18.738  1.00  0.00    +0.000 C 
ATOM     57  F9  UNL A   1      61.552  23.169  18.712  1.00  0.00    +0.000 F 
ATOM     58  C42 UNL A   1      59.857  21.819  17.765  1.00  0.00    +0.000 C 
ATOM     59  F10 UNL A   1      59.664  22.750  16.820  1.00  0.00    +0.000 F 
ENDBRANCH   48   49
BRANCH   63   64
ATOM     65  C47 UNL A   1      52.378  24.034  16.951  1.00  0.00    +0.000 C 
ATOM     66  F11 UNL A   1      53.129  24.699  16.061  1.00  0.00    +0.000 F 
ATOM     67  C48 UNL A   1      51.557  24.758  17.812  1.00  0.00    +0.000 C 
ATOM     68  F12 UNL A   1      51.534  26.096  17.745  1.00  0.00    +0.000 F 
ATOM     69  C49 UNL A   1      50.786  24.097  18.756  1.00  0.00    +0.000 C 
ATOM     70  F13 UNL A   1      50.001  24.794  19.589  1.00  0.00    +0.000 F 
ATOM     71  C50 UNL A   1      50.839  22.714  18.843  1.00  0.00    +0.000 C 
ATOM     72  F14 UNL A   1      50.085  22.072  19.746  1.00  0.00    +0.000 F 
ATOM     73  C51 UNL A   1      51.683  21.992  18.002  1.00  0.00    +0.000 C 
ATOM     74  F15 UNL A   1      51.731  20.657  18.125  1.00  0.00    +0.000 F 
ATOM     64  C46 UNL A   1      52.471  22.638  17.040  1.00  0.00    +0.000 C 
ENDBRANCH   63   64
TORSDOF 19
ENDMDL
MODEL 9
REMARK VINA RESULT:      -8.2     40.443     44.808
ROOT
ATOM     27  C22 UNL A   1      40.232  29.061  29.070  1.00  0.00    +0.000 C 
ATOM     28  C23 UNL A   1      40.884  27.794  28.589  1.00  0.00    +0.000 C 
ATOM     29  N3  UNL A   1      42.092  27.344  28.821  1.00  0.00    +0.000 N 
ATOM     30  C24 UNL A   1      42.167  26.113  28.183  1.00  0.00    +0.000 C 
ATOM     31  C25 UNL A   1      43.227  25.275  28.086  1.00  0.00    +0.000 C 
ATOM     43  C32 UNL A   1      44.527  25.543  28.642  1.00  0.00    +0.000 C 
ATOM     44  C33 UNL A   1      45.682  24.787  28.537  1.00  0.00    +0.000 C 
ATOM     45  C34 UNL A   1      46.691  25.426  29.266  1.00  0.00    +0.000 C 
ATOM     46  C35 UNL A   1      46.176  26.603  29.785  1.00  0.00    +0.000 C 
ATOM     47  N4  UNL A   1      44.846  26.659  29.402  1.00  0.00    +0.000 N 
ATOM     48  C36 UNL A   1      46.848  27.604  30.571  1.00  0.00    +0.000 C 
ATOM     60  C43 UNL A   1      46.265  28.724  31.064  1.00  0.00    +0.000 C 
ATOM     61  N5  UNL A   1      44.957  29.164  30.915  1.00  0.00    +0.000 N 
ATOM     62  C44 UNL A   1      44.877  30.288  31.582  1.00  0.00    +0.000 C 
ATOM     63  C45 UNL A   1      43.709  31.227  31.732  1.00  0.00    +0.000 C 
ATOM     75  C52 UNL A   1      42.554  30.944  31.101  1.00  0.00    +0.000 C 
ATOM     76  C53 UNL A   1      41.346  31.763  31.136  1.00  0.00    +0.000 C 
ATOM     77  C54 UNL A   1      40.385  31.157  30.421  1.00  0.00    +0.000 C 
ATOM     78  C55 UNL A   1      40.919  29.920  29.850  1.00  0.00    +0.000 C 
ATOM     79  N6  UNL A   1      42.214  29.877  30.305  1.00  0.00    +0.000 N 
ATOM     80  C56 UNL A   1      46.122  30.669  32.265  1.00  0.00    +0.000 C 
ATOM     81  C57 UNL A   1      46.947  29.708  31.876  1.00  0.00    +0.000 C 
ATOM     82  C58 UNL A   1      40.872  25.864  27.588  1.00  0.00    +0.000 C 
ATOM     83  C59 UNL A   1      40.063  26.900  27.756  1.00  0.00    +0.000 C 
ATOM    116  H27 UNL A   1      45.783  23.904  28.013  1.00  0.00    +0.000 H 
ATOM    117  H28 UNL A   1      47.654  25.079  29.396  1.00  0.00    +0.000 H 
ATOM    118  H29 UNL A   1      44.220  27.382  29.634  1.00  0.00    +0.000 H 
ATOM    119  H30 UNL A   1      41.247  32.663  31.631  1.00  0.00    +0.000 H 
ATOM    120  H31 UNL A   1      39.422  31.508  30.294  1.00  0.00    +0.000 H 
ATOM    121  H32 UNL A   1      42.839  29.149  30.083  1.00  0.00    +0.000 H 
ATOM    122  H33 UNL A   1      46.307  31.473  32.885  1.00  0.00    +0.000 H 
ATOM    123  H34 UNL A   1      47.949  29.666  32.121  1.00  0.00    +0.000 H 
ATOM    124  H35 UNL A   1      40.612  24.994  27.098  1.00  0.00    +0.000 H 
ATOM    125  H36 UNL A   1      39.107  27.044  27.396  1.00  0.00    +0.000 H 
ENDROOT
BRANCH   27   26
ATOM    114  H25 UNL A   1      36.850  30.437  26.234  1.00  0.00    +0.000 H 
ATOM    115  H26 UNL A   1      39.161  29.877  26.721  1.00  0.00    +0.000 H 
ATOM     84  C60 UNL A   1      37.818  29.170  29.713  1.00  0.00    +0.000 C 
ATOM     85  C61 UNL A   1      36.479  29.417  29.409  1.00  0.00    +0.000 C 
ATOM     23  C18 UNL A   1      36.132  29.932  28.157  1.00  0.00    +0.000 C 
ATOM     24  C19 UNL A   1      37.111  30.091  27.172  1.00  0.00    +0.000 C 
ATOM     25  C20 UNL A   1      38.443  29.783  27.457  1.00  0.00    +0.000 C 
ATOM     26  C21 UNL A   1      38.812  29.345  28.739  1.00  0.00    +0.000 C 
ATOM    126  H37 UNL A   1      38.079  28.857  30.662  1.00  0.00    +0.000 H 
ATOM    127  H38 UNL A   1      35.746  29.220  30.108  1.00  0.00    +0.000 H 
BRANCH   23   21
ATOM     21  C17 UNL A   1      34.735  30.291  27.830  1.00  0.00    +0.000 C 
ATOM     22  O3  UNL A   1      33.938  29.410  27.519  1.00  0.00    +0.000 O 
BRANCH   21   20
ATOM    113  H24 UNL A   1      34.106  31.987  26.973  1.00  0.00    +0.000 H 
ATOM     20  N2  UNL A   1      34.332  31.602  27.851  1.00  0.00    +0.000 N 
BRANCH   20   19
ATOM     19  C16 UNL A   1      34.191  32.506  28.979  1.00  0.00    +0.000 C 
ATOM    111  H22 UNL A   1      33.169  32.817  29.044  1.00  0.00    +0.000 H 
ATOM    112  H23 UNL A   1      34.499  31.979  29.858  1.00  0.00    +0.000 H 
BRANCH   19   18
ATOM     18  C15 UNL A   1      35.070  33.746  28.851  1.00  0.00    +0.000 C 
ATOM    109  H20 UNL A   1      34.573  34.440  28.206  1.00  0.00    +0.000 H 
ATOM    110  H21 UNL A   1      35.210  34.112  29.847  1.00  0.00    +0.000 H 
BRANCH   18   17
ATOM     17  C14 UNL A   1      36.473  33.500  28.290  1.00  0.00    +0.000 C 
ATOM    107  H18 UNL A   1      36.405  32.713  27.568  1.00  0.00    +0.000 H 
ATOM    108  H19 UNL A   1      36.795  34.435  27.883  1.00  0.00    +0.000 H 
BRANCH   17   16
ATOM    105  H16 UNL A   1      37.044  32.617  30.134  1.00  0.00    +0.000 H 
ATOM    106  H17 UNL A   1      38.230  32.476  28.801  1.00  0.00    +0.000 H 
ATOM     16  C13 UNL A   1      37.537  33.103  29.319  1.00  0.00    +0.000 C 
BRANCH   16   15
ATOM    103  H14 UNL A   1      39.364  34.169  29.526  1.00  0.00    +0.000 H 
ATOM     15  C12 UNL A   1      38.362  34.261  29.889  1.00  0.00    +0.000 C 
ATOM    104  H15 UNL A   1      37.880  35.161  29.571  1.00  0.00    +0.000 H 
BRANCH   15   14
ATOM    102  H13 UNL A   1      38.943  35.202  31.699  1.00  0.00    +0.000 H 
ATOM    101  H12 UNL A   1      38.911  33.441  31.775  1.00  0.00    +0.000 H 
ATOM     14  C11 UNL A   1      38.414  34.316  31.413  1.00  0.00    +0.000 C 
BRANCH   14   13
ATOM    100  H11 UNL A   1      36.423  34.876  31.462  1.00  0.00    +0.000 H 
ATOM     13  N1  UNL A   1      37.087  34.377  31.990  1.00  0.00    +0.000 N 
BRANCH   13   11
ATOM     11  C10 UNL A   1      36.621  33.844  33.155  1.00  0.00    +0.000 C 
ATOM     12  O2  UNL A   1      36.334  34.631  34.064  1.00  0.00    +0.000 O 
BRANCH   11    9
ATOM      9  C8  UNL A   1      36.442  32.332  33.344  1.00  0.00    +0.000 C 
ATOM     96  H7  UNL A   1      35.801  32.142  34.181  1.00  0.00    +0.000 H 
BRANCH    9    8
ATOM    129  H40 UNL A   1      40.203  31.723  36.062  1.00  0.00    +0.000 H 
ATOM    130  H41 UNL A   1      41.657  29.744  35.873  1.00  0.00    +0.000 H 
ATOM      3  C2  UNL A   1      41.500  28.287  34.361  1.00  0.00    +0.000 C 
ATOM      4  C3  UNL A   1      40.760  27.844  33.267  1.00  0.00    +0.000 C 
ATOM      5  C4  UNL A   1      39.648  28.575  32.844  1.00  0.00    +0.000 C 
ATOM      6  C5  UNL A   1      39.264  29.749  33.510  1.00  0.00    +0.000 C 
ATOM      7  C6  UNL A   1      38.132  30.482  33.114  1.00  0.00    +0.000 C 
ATOM      8  C7  UNL A   1      37.736  31.656  33.782  1.00  0.00    +0.000 C 
ATOM     86  C62 UNL A   1      38.532  32.114  34.838  1.00  0.00    +0.000 C 
ATOM     87  C63 UNL A   1      39.646  31.383  35.262  1.00  0.00    +0.000 C 
ATOM     88  C64 UNL A   1      40.017  30.196  34.616  1.00  0.00    +0.000 C 
ATOM     89  C65 UNL A   1      41.121  29.442  35.044  1.00  0.00    +0.000 C 
ATOM     93  H4  UNL A   1      41.033  26.981  32.772  1.00  0.00    +0.000 H 
ATOM     94  H5  UNL A   1      39.103  28.248  32.030  1.00  0.00    +0.000 H 
ATOM     95  H6  UNL A   1      37.576  30.150  32.311  1.00  0.00    +0.000 H 
ATOM    128  H39 UNL A   1      38.294  33.001  35.309  1.00  0.00    +0.000 H 
BRANCH    3    2
ATOM      2  O1  UNL A   1      42.570  27.597  34.861  1.00  0.00    +0.000 O 
BRANCH    2    1
ATOM      1  C1  UNL A   1      43.782  27.905  34.176  1.00  0.00    +0.000 C 
ATOM     90  H1  UNL A   1      43.571  28.096  33.145  1.00  0.00    +0.000 H 
ATOM     91  H2  UNL A   1      44.456  27.078  34.255  1.00  0.00    +0.000 H 
ATOM     92  H3  UNL A   1      44.229  28.772  34.617  1.00  0.00    +0.000 H 
ENDBRANCH    2    1
ENDBRANCH    3    2
ENDBRANCH    9    8
BRANCH    9   10
ATOM     97  H8  UNL A   1      35.562  30.658  32.342  1.00  0.00    +0.000 H 
ATOM     10  C9  UNL A   1      35.662  31.711  32.182  1.00  0.00    +0.000 C 
ATOM     99  H10 UNL A   1      34.691  32.157  32.125  1.00  0.00    +0.000 H 
ATOM     98  H9  UNL A   1      36.188  31.885  31.267  1.00  0.00    +0.000 H 
ENDBRANCH    9   10
ENDBRANCH   11    9
ENDBRANCH   13   11
ENDBRANCH   14   13
ENDBRANCH   15   14
ENDBRANCH   16   15
ENDBRANCH   17   16
ENDBRANCH   18   17
ENDBRANCH   19   18
ENDBRANCH   20   19
ENDBRANCH   21   20
ENDBRANCH   23   21
ENDBRANCH   27   26
BRANCH   31   32
ATOM     33  C27 UNL A   1      43.362  23.867  25.983  1.00  0.00    +0.000 C 
ATOM     34  F1  UNL A   1      43.785  24.937  25.294  1.00  0.00    +0.000 F 
ATOM     35  C28 UNL A   1      43.230  22.651  25.319  1.00  0.00    +0.000 C 
ATOM     36  F2  UNL A   1      43.515  22.568  24.012  1.00  0.00    +0.000 F 
ATOM     37  C29 UNL A   1      42.801  21.525  26.006  1.00  0.00    +0.000 C 
ATOM     38  F3  UNL A   1      42.690  20.350  25.369  1.00  0.00    +0.000 F 
ATOM     39  C30 UNL A   1      42.483  21.617  27.353  1.00  0.00    +0.000 C 
ATOM     40  F4  UNL A   1      42.082  20.527  28.021  1.00  0.00    +0.000 F 
ATOM     41  C31 UNL A   1      42.588  22.838  28.014  1.00  0.00    +0.000 C 
ATOM     42  F5  UNL A   1      42.268  22.897  29.315  1.00  0.00    +0.000 F 
ATOM     32  C26 UNL A   1      43.036  23.986  27.342  1.00  0.00    +0.000 C 
ENDBRANCH   31   32
BRANCH   48   49
ATOM     49  C37 UNL A   1      48.311  27.412  30.847  1.00  0.00    +0.000 C 
ATOM     50  C38 UNL A   1      48.764  26.700  31.966  1.00  0.00    +0.000 C 
ATOM     51  F6  UNL A   1      47.887  26.202  32.850  1.00  0.00    +0.000 F 
ATOM     52  C39 UNL A   1      50.126  26.534  32.203  1.00  0.00    +0.000 C 
ATOM     53  F7  UNL A   1      50.539  25.894  33.306  1.00  0.00    +0.000 F 
ATOM     54  C40 UNL A   1      51.057  27.045  31.310  1.00  0.00    +0.000 C 
ATOM     55  F8  UNL A   1      52.366  26.880  31.538  1.00  0.00    +0.000 F 
ATOM     56  C41 UNL A   1      50.629  27.732  30.185  1.00  0.00    +0.000 C 
ATOM     57  F9  UNL A   1      51.526  28.215  29.314  1.00  0.00    +0.000 F 
ATOM     58  C42 UNL A   1      49.270  27.926  29.960  1.00  0.00    +0.000 C 
ATOM     59  F10 UNL A   1      48.886  28.609  28.871  1.00  0.00    +0.000 F 
ENDBRANCH   48   49
BRANCH   63   64
ATOM     65  C47 UNL A   1      43.640  32.443  33.929  1.00  0.00    +0.000 C 
ATOM     66  F11 UNL A   1      43.344  31.288  34.543  1.00  0.00    +0.000 F 
ATOM     67  C48 UNL A   1      43.691  33.612  34.685  1.00  0.00    +0.000 C 
ATOM     68  F12 UNL A   1      43.439  33.568  36.000  1.00  0.00    +0.000 F 
ATOM     69  C49 UNL A   1      43.974  34.823  34.072  1.00  0.00    +0.000 C 
ATOM     70  F13 UNL A   1      44.016  35.949  34.798  1.00  0.00    +0.000 F 
ATOM     71  C50 UNL A   1      44.201  34.868  32.705  1.00  0.00    +0.000 C 
ATOM     72  F14 UNL A   1      44.488  36.035  32.112  1.00  0.00    +0.000 F 
ATOM     73  C51 UNL A   1      44.121  33.703  31.944  1.00  0.00    +0.000 C 
ATOM     74  F15 UNL A   1      44.322  33.780  30.620  1.00  0.00    +0.000 F 
ATOM     64  C46 UNL A   1      43.836  32.467  32.541  1.00  0.00    +0.000 C 
ENDBRANCH   63   64
TORSDOF 19
ENDMDL
MODEL 10
REMARK VINA RESULT:      -8.2     43.315     46.804
ROOT
ATOM     27  C22 UNL A   1      25.848  36.136  45.604  1.00  0.00    +0.000 C 
ATOM     28  C23 UNL A   1      25.736  37.310  46.537  1.00  0.00    +0.000 C 
ATOM     29  N3  UNL A   1      26.628  38.223  46.831  1.00  0.00    +0.000 N 
ATOM     30  C24 UNL A   1      25.999  39.101  47.704  1.00  0.00    +0.000 C 
ATOM     31  C25 UNL A   1      26.516  40.184  48.332  1.00  0.00    +0.000 C 
ATOM     43  C32 UNL A   1      27.883  40.619  48.207  1.00  0.00    +0.000 C 
ATOM     44  C33 UNL A   1      28.518  41.663  48.856  1.00  0.00    +0.000 C 
ATOM     45  C34 UNL A   1      29.837  41.729  48.395  1.00  0.00    +0.000 C 
ATOM     46  C35 UNL A   1      30.035  40.696  47.493  1.00  0.00    +0.000 C 
ATOM     47  N4  UNL A   1      28.827  40.028  47.380  1.00  0.00    +0.000 N 
ATOM     48  C36 UNL A   1      31.238  40.343  46.786  1.00  0.00    +0.000 C 
ATOM     60  C43 UNL A   1      31.346  39.325  45.898  1.00  0.00    +0.000 C 
ATOM     61  N5  UNL A   1      30.382  38.411  45.496  1.00  0.00    +0.000 N 
ATOM     62  C44 UNL A   1      30.965  37.635  44.618  1.00  0.00    +0.000 C 
ATOM     63  C45 UNL A   1      30.410  36.442  43.884  1.00  0.00    +0.000 C 
ATOM     75  C52 UNL A   1      29.147  36.048  44.130  1.00  0.00    +0.000 C 
ATOM     76  C53 UNL A   1      28.479  34.906  43.512  1.00  0.00    +0.000 C 
ATOM     77  C54 UNL A   1      27.220  34.835  43.970  1.00  0.00    +0.000 C 
ATOM     78  C55 UNL A   1      27.000  35.910  44.940  1.00  0.00    +0.000 C 
ATOM     79  N6  UNL A   1      28.199  36.578  44.971  1.00  0.00    +0.000 N 
ATOM     80  C56 UNL A   1      32.361  37.995  44.333  1.00  0.00    +0.000 C 
ATOM     81  C57 UNL A   1      32.557  38.999  45.175  1.00  0.00    +0.000 C 
ATOM     82  C58 UNL A   1      24.637  38.638  47.862  1.00  0.00    +0.000 C 
ATOM     83  C59 UNL A   1      24.442  37.499  47.212  1.00  0.00    +0.000 C 
ATOM    116  H27 UNL A   1      28.093  42.287  49.560  1.00  0.00    +0.000 H 
ATOM    117  H28 UNL A   1      30.541  42.428  48.676  1.00  0.00    +0.000 H 
ATOM    118  H29 UNL A   1      28.662  39.250  46.801  1.00  0.00    +0.000 H 
ATOM    119  H30 UNL A   1      28.908  34.258  42.832  1.00  0.00    +0.000 H 
ATOM    120  H31 UNL A   1      26.518  34.133  43.684  1.00  0.00    +0.000 H 
ATOM    121  H32 UNL A   1      28.363  37.363  45.543  1.00  0.00    +0.000 H 
ATOM    122  H33 UNL A   1      33.018  37.576  43.656  1.00  0.00    +0.000 H 
ATOM    123  H34 UNL A   1      33.457  39.487  45.300  1.00  0.00    +0.000 H 
ATOM    124  H35 UNL A   1      23.913  39.129  48.409  1.00  0.00    +0.000 H 
ATOM    125  H36 UNL A   1      23.603  36.901  47.187  1.00  0.00    +0.000 H 
ENDROOT
BRANCH   27   26
ATOM    114  H25 UNL A   1      23.309  32.348  46.362  1.00  0.00    +0.000 H 
ATOM    115  H26 UNL A   1      25.173  33.825  46.843  1.00  0.00    +0.000 H 
ATOM     84  C60 UNL A   1      23.725  35.604  44.395  1.00  0.00    +0.000 C 
ATOM     85  C61 UNL A   1      22.612  34.793  44.174  1.00  0.00    +0.000 C 
ATOM     23  C18 UNL A   1      22.489  33.578  44.851  1.00  0.00    +0.000 C 
ATOM     24  C19 UNL A   1      23.420  33.229  45.834  1.00  0.00    +0.000 C 
ATOM     25  C20 UNL A   1      24.501  34.072  46.101  1.00  0.00    +0.000 C 
ATOM     26  C21 UNL A   1      24.677  35.254  45.365  1.00  0.00    +0.000 C 
ATOM    126  H37 UNL A   1      23.849  36.467  43.842  1.00  0.00    +0.000 H 
ATOM    127  H38 UNL A   1      21.880  35.091  43.510  1.00  0.00    +0.000 H 
BRANCH   23   21
ATOM     21  C17 UNL A   1      21.369  32.650  44.577  1.00  0.00    +0.000 C 
ATOM     22  O3  UNL A   1      21.378  31.974  43.551  1.00  0.00    +0.000 O 
BRANCH   21   20
ATOM    113  H24 UNL A   1      20.493  32.049  46.272  1.00  0.00    +0.000 H 
ATOM     20  N2  UNL A   1      20.314  32.559  45.449  1.00  0.00    +0.000 N 
BRANCH   20   19
ATOM     19  C16 UNL A   1      18.974  33.105  45.336  1.00  0.00    +0.000 C 
ATOM    111  H22 UNL A   1      18.271  32.297  45.345  1.00  0.00    +0.000 H 
ATOM    112  H23 UNL A   1      18.822  33.767  46.162  1.00  0.00    +0.000 H 
BRANCH   19   18
ATOM     18  C15 UNL A   1      18.773  33.910  44.055  1.00  0.00    +0.000 C 
ATOM    109  H20 UNL A   1      18.493  34.905  44.330  1.00  0.00    +0.000 H 
ATOM    110  H21 UNL A   1      19.702  33.857  43.525  1.00  0.00    +0.000 H 
BRANCH   18   17
ATOM     17  C14 UNL A   1      17.709  33.365  43.099  1.00  0.00    +0.000 C 
ATOM    107  H18 UNL A   1      16.797  33.260  43.647  1.00  0.00    +0.000 H 
ATOM    108  H19 UNL A   1      17.652  34.067  42.293  1.00  0.00    +0.000 H 
BRANCH   17   16
ATOM    105  H16 UNL A   1      18.176  32.173  41.406  1.00  0.00    +0.000 H 
ATOM    106  H17 UNL A   1      18.898  31.643  42.956  1.00  0.00    +0.000 H 
ATOM     16  C13 UNL A   1      18.030  32.013  42.453  1.00  0.00    +0.000 C 
BRANCH   16   15
ATOM    103  H14 UNL A   1      16.037  31.415  42.883  1.00  0.00    +0.000 H 
ATOM     15  C12 UNL A   1      16.955  30.934  42.621  1.00  0.00    +0.000 C 
ATOM    104  H15 UNL A   1      16.905  30.410  41.690  1.00  0.00    +0.000 H 
BRANCH   15   14
ATOM    102  H13 UNL A   1      17.353  30.386  44.630  1.00  0.00    +0.000 H 
ATOM    101  H12 UNL A   1      18.176  29.390  43.431  1.00  0.00    +0.000 H 
ATOM     14  C11 UNL A   1      17.264  29.888  43.687  1.00  0.00    +0.000 C 
BRANCH   14   13
ATOM    100  H11 UNL A   1      15.480  29.136  44.417  1.00  0.00    +0.000 H 
ATOM     13  N1  UNL A   1      16.206  28.905  43.793  1.00  0.00    +0.000 N 
BRANCH   13   11
ATOM     11  C10 UNL A   1      16.064  27.709  43.156  1.00  0.00    +0.000 C 
ATOM     12  O2  UNL A   1      16.747  26.763  43.566  1.00  0.00    +0.000 O 
BRANCH   11    9
ATOM      9  C8  UNL A   1      15.092  27.520  41.985  1.00  0.00    +0.000 C 
ATOM     96  H7  UNL A   1      14.192  28.072  42.164  1.00  0.00    +0.000 H 
BRANCH    9    8
ATOM    129  H40 UNL A   1      12.769  23.755  43.510  1.00  0.00    +0.000 H 
ATOM    130  H41 UNL A   1      12.343  21.800  42.074  1.00  0.00    +0.000 H 
ATOM      3  C2  UNL A   1      13.156  21.531  40.150  1.00  0.00    +0.000 C 
ATOM      4  C3  UNL A   1      13.912  22.110  39.133  1.00  0.00    +0.000 C 
ATOM      5  C4  UNL A   1      14.460  23.381  39.318  1.00  0.00    +0.000 C 
ATOM      6  C5  UNL A   1      14.256  24.085  40.515  1.00  0.00    +0.000 C 
ATOM      7  C6  UNL A   1      14.778  25.375  40.706  1.00  0.00    +0.000 C 
ATOM      8  C7  UNL A   1      14.570  26.091  41.902  1.00  0.00    +0.000 C 
ATOM     86  C62 UNL A   1      13.863  25.462  42.932  1.00  0.00    +0.000 C 
ATOM     87  C63 UNL A   1      13.313  24.188  42.748  1.00  0.00    +0.000 C 
ATOM     88  C64 UNL A   1      13.492  23.494  41.544  1.00  0.00    +0.000 C 
ATOM     89  C65 UNL A   1      12.930  22.224  41.339  1.00  0.00    +0.000 C 
ATOM     93  H4  UNL A   1      14.065  21.602  38.248  1.00  0.00    +0.000 H 
ATOM     94  H5  UNL A   1      15.022  23.808  38.564  1.00  0.00    +0.000 H 
ATOM     95  H6  UNL A   1      15.328  25.810  39.950  1.00  0.00    +0.000 H 
ATOM    128  H39 UNL A   1      13.744  25.943  43.837  1.00  0.00    +0.000 H 
BRANCH    3    2
ATOM      2  O1  UNL A   1      12.549  20.313  40.021  1.00  0.00    +0.000 O 
BRANCH    2    1
ATOM      1  C1  UNL A   1      12.283  19.702  41.282  1.00  0.00    +0.000 C 
ATOM     90  H1  UNL A   1      13.188  19.288  41.676  1.00  0.00    +0.000 H 
ATOM     91  H2  UNL A   1      11.560  18.924  41.156  1.00  0.00    +0.000 H 
ATOM     92  H3  UNL A   1      11.902  20.437  41.960  1.00  0.00    +0.000 H 
ENDBRANCH    2    1
ENDBRANCH    3    2
ENDBRANCH    9    8
BRANCH    9   10
ATOM     97  H8  UNL A   1      16.270  27.480  40.198  1.00  0.00    +0.000 H 
ATOM     10  C9  UNL A   1      15.626  28.168  40.704  1.00  0.00    +0.000 C 
ATOM     99  H10 UNL A   1      14.806  28.425  40.065  1.00  0.00    +0.000 H 
ATOM     98  H9  UNL A   1      16.173  29.053  40.954  1.00  0.00    +0.000 H 
ENDBRANCH    9   10
ENDBRANCH   11    9
ENDBRANCH   13   11
ENDBRANCH   14   13
ENDBRANCH   15   14
ENDBRANCH   16   15
ENDBRANCH   17   16
ENDBRANCH   18   17
ENDBRANCH   19   18
ENDBRANCH   20   19
ENDBRANCH   21   20
ENDBRANCH   23   21
ENDBRANCH   27   26
BRANCH   31   32
ATOM     33  C27 UNL A   1      25.476  40.681  50.589  1.00  0.00    +0.000 C 
ATOM     34  F1  UNL A   1      26.108  39.621  51.113  1.00  0.00    +0.000 F 
ATOM     35  C28 UNL A   1      24.670  41.459  51.415  1.00  0.00    +0.000 C 
ATOM     36  F2  UNL A   1      24.531  41.136  52.709  1.00  0.00    +0.000 F 
ATOM     37  C29 UNL A   1      24.008  42.565  50.903  1.00  0.00    +0.000 C 
ATOM     38  F3  UNL A   1      23.246  43.322  51.704  1.00  0.00    +0.000 F 
ATOM     39  C30 UNL A   1      24.133  42.883  49.559  1.00  0.00    +0.000 C 
ATOM     40  F4  UNL A   1      23.505  43.959  49.066  1.00  0.00    +0.000 F 
ATOM     41  C31 UNL A   1      24.916  42.091  48.723  1.00  0.00    +0.000 C 
ATOM     42  F5  UNL A   1      25.013  42.421  47.427  1.00  0.00    +0.000 F 
ATOM     32  C26 UNL A   1      25.608  40.978  49.224  1.00  0.00    +0.000 C 
ENDBRANCH   31   32
BRANCH   48   49
ATOM     49  C37 UNL A   1      32.477  41.141  47.072  1.00  0.00    +0.000 C 
ATOM     50  C38 UNL A   1      33.474  40.673  47.940  1.00  0.00    +0.000 C 
ATOM     51  F6  UNL A   1      33.319  39.502  48.576  1.00  0.00    +0.000 F 
ATOM     52  C39 UNL A   1      34.615  41.429  48.191  1.00  0.00    +0.000 C 
ATOM     53  F7  UNL A   1      35.531  40.987  49.064  1.00  0.00    +0.000 F 
ATOM     54  C40 UNL A   1      34.798  42.648  47.554  1.00  0.00    +0.000 C 
ATOM     55  F8  UNL A   1      35.899  43.372  47.794  1.00  0.00    +0.000 F 
ATOM     56  C41 UNL A   1      33.836  43.118  46.673  1.00  0.00    +0.000 C 
ATOM     57  F9  UNL A   1      34.017  44.289  46.048  1.00  0.00    +0.000 F 
ATOM     58  C42 UNL A   1      32.680  42.379  46.443  1.00  0.00    +0.000 C 
ATOM     59  F10 UNL A   1      31.759  42.867  45.599  1.00  0.00    +0.000 F 
ENDBRANCH   48   49
BRANCH   63   64
ATOM     65  C47 UNL A   1      31.349  36.090  41.579  1.00  0.00    +0.000 C 
ATOM     66  F11 UNL A   1      30.679  37.172  41.157  1.00  0.00    +0.000 F 
ATOM     67  C48 UNL A   1      32.085  35.352  40.656  1.00  0.00    +0.000 C 
ATOM     68  F12 UNL A   1      32.107  35.724  39.369  1.00  0.00    +0.000 F 
ATOM     69  C49 UNL A   1      32.771  34.217  41.063  1.00  0.00    +0.000 C 
ATOM     70  F13 UNL A   1      33.473  33.502  40.173  1.00  0.00    +0.000 F 
ATOM     71  C50 UNL A   1      32.718  33.818  42.390  1.00  0.00    +0.000 C 
ATOM     72  F14 UNL A   1      33.389  32.729  42.787  1.00  0.00    +0.000 F 
ATOM     73  C51 UNL A   1      31.957  34.540  43.307  1.00  0.00    +0.000 C 
ATOM     74  F15 UNL A   1      31.905  34.116  44.579  1.00  0.00    +0.000 F 
ATOM     64  C46 UNL A   1      31.256  35.690  42.920  1.00  0.00    +0.000 C 
ENDBRANCH   63   64
TORSDOF 19
ENDMDL
