MODEL 1
REMARK VINA RESULT:     -12.0      0.000      0.000
ROOT
ATOM     30  C24 UNL A   1      25.299  33.237  46.435  1.00  0.00    +0.000 C 
ATOM     31  C25 UNL A   1      26.180  32.142  47.044  1.00  0.00    +0.000 C 
ATOM     32  N4  UNL A   1      27.201  32.233  47.844  1.00  0.00    +0.000 N 
ATOM     33  C26 UNL A   1      27.716  30.932  48.014  1.00  0.00    +0.000 C 
ATOM     34  C27 UNL A   1      28.951  30.664  48.529  1.00  0.00    +0.000 C 
ATOM     46  C34 UNL A   1      29.615  31.856  48.931  1.00  0.00    +0.000 C 
ATOM     47  C35 UNL A   1      29.517  32.673  50.025  1.00  0.00    +0.000 C 
ATOM     48  C36 UNL A   1      29.966  33.936  49.576  1.00  0.00    +0.000 C 
ATOM     49  C37 UNL A   1      30.352  33.830  48.238  1.00  0.00    +0.000 C 
ATOM     50  N5  UNL A   1      30.403  32.478  47.995  1.00  0.00    +0.000 N 
ATOM     51  C38 UNL A   1      30.485  34.718  47.102  1.00  0.00    +0.000 C 
ATOM     63  C45 UNL A   1      30.140  36.017  47.279  1.00  0.00    +0.000 C 
ATOM     64  N6  UNL A   1      29.398  36.665  46.315  1.00  0.00    +0.000 N 
ATOM     65  C46 UNL A   1      28.494  37.284  47.016  1.00  0.00    +0.000 C 
ATOM     66  C47 UNL A   1      27.235  37.833  46.474  1.00  0.00    +0.000 C 
ATOM     78  C54 UNL A   1      26.433  36.753  46.210  1.00  0.00    +0.000 C 
ATOM     79  C55 UNL A   1      25.110  36.746  45.621  1.00  0.00    +0.000 C 
ATOM     80  C56 UNL A   1      24.613  35.495  45.620  1.00  0.00    +0.000 C 
ATOM     81  C57 UNL A   1      25.567  34.557  46.229  1.00  0.00    +0.000 C 
ATOM     82  N7  UNL A   1      26.651  35.378  46.483  1.00  0.00    +0.000 N 
ATOM     83  C58 UNL A   1      28.737  37.360  48.462  1.00  0.00    +0.000 C 
ATOM     84  C59 UNL A   1      29.891  36.702  48.523  1.00  0.00    +0.000 C 
ATOM     85  C60 UNL A   1      26.773  30.036  47.414  1.00  0.00    +0.000 C 
ATOM     86  C61 UNL A   1      25.836  30.723  46.760  1.00  0.00    +0.000 C 
ATOM    114  H26 UNL A   1      29.186  32.422  50.970  1.00  0.00    +0.000 H 
ATOM    115  H27 UNL A   1      30.003  34.797  50.144  1.00  0.00    +0.000 H 
ATOM    116  H28 UNL A   1      30.912  32.035  47.279  1.00  0.00    +0.000 H 
ATOM    117  H29 UNL A   1      24.620  37.577  45.254  1.00  0.00    +0.000 H 
ATOM    118  H30 UNL A   1      23.689  35.230  45.243  1.00  0.00    +0.000 H 
ATOM    119  H31 UNL A   1      27.507  35.035  46.828  1.00  0.00    +0.000 H 
ATOM    120  H32 UNL A   1      28.177  37.796  49.211  1.00  0.00    +0.000 H 
ATOM    121  H33 UNL A   1      30.517  36.684  49.344  1.00  0.00    +0.000 H 
ATOM    122  H34 UNL A   1      26.813  29.007  47.480  1.00  0.00    +0.000 H 
ATOM    123  H35 UNL A   1      25.057  30.357  46.191  1.00  0.00    +0.000 H 
ENDROOT
BRANCH   30   29
ATOM    124  H36 UNL A   1      24.395  32.469  43.993  1.00  0.00    +0.000 H 
ATOM     29  C23 UNL A   1      23.952  32.753  46.044  1.00  0.00    +0.000 C 
ATOM    112  H24 UNL A   1      21.044  31.896  47.467  1.00  0.00    +0.000 H 
ATOM    113  H25 UNL A   1      23.156  32.966  47.992  1.00  0.00    +0.000 H 
ATOM     87  C62 UNL A   1      23.687  32.335  44.731  1.00  0.00    +0.000 C 
ATOM     88  C63 UNL A   1      22.464  31.738  44.428  1.00  0.00    +0.000 C 
ATOM     26  C20 UNL A   1      21.522  31.529  45.440  1.00  0.00    +0.000 C 
ATOM     27  C21 UNL A   1      21.765  32.003  46.735  1.00  0.00    +0.000 C 
ATOM     28  C22 UNL A   1      22.976  32.615  47.039  1.00  0.00    +0.000 C 
ATOM    125  H37 UNL A   1      22.255  31.450  43.459  1.00  0.00    +0.000 H 
BRANCH   26   24
ATOM     25  O2  UNL A   1      20.178  29.722  44.812  1.00  0.00    +0.000 O 
ATOM     24  C19 UNL A   1      20.214  30.884  45.185  1.00  0.00    +0.000 C 
BRANCH   24   23
ATOM    111  H23 UNL A   1      18.623  31.544  46.226  1.00  0.00    +0.000 H 
ATOM     23  N3  UNL A   1      19.036  31.579  45.333  1.00  0.00    +0.000 N 
BRANCH   23   22
ATOM    110  H22 UNL A   1      18.757  32.156  43.375  1.00  0.00    +0.000 H 
ATOM    109  H21 UNL A   1      18.413  33.398  44.573  1.00  0.00    +0.000 H 
ATOM     22  C18 UNL A   1      18.325  32.359  44.332  1.00  0.00    +0.000 C 
BRANCH   22   21
ATOM    107  H19 UNL A   1      16.340  32.509  45.070  1.00  0.00    +0.000 H 
ATOM    108  H20 UNL A   1      16.490  32.242  43.313  1.00  0.00    +0.000 H 
ATOM     21  C17 UNL A   1      16.844  31.980  44.288  1.00  0.00    +0.000 C 
BRANCH   21   20
ATOM    105  H17 UNL A   1      17.204  30.119  45.249  1.00  0.00    +0.000 H 
ATOM    106  H18 UNL A   1      15.526  30.396  44.690  1.00  0.00    +0.000 H 
ATOM     20  C16 UNL A   1      16.569  30.481  44.467  1.00  0.00    +0.000 C 
BRANCH   20   19
ATOM     19  C15 UNL A   1      16.811  29.622  43.223  1.00  0.00    +0.000 C 
ATOM    103  H15 UNL A   1      16.225  30.024  42.425  1.00  0.00    +0.000 H 
ATOM    104  H16 UNL A   1      17.865  29.656  43.041  1.00  0.00    +0.000 H 
BRANCH   19   18
ATOM     18  C14 UNL A   1      16.454  28.136  43.372  1.00  0.00    +0.000 C 
ATOM    101  H13 UNL A   1      17.158  27.567  42.803  1.00  0.00    +0.000 H 
ATOM    102  H14 UNL A   1      16.485  27.925  44.421  1.00  0.00    +0.000 H 
BRANCH   18   17
ATOM     17  C13 UNL A   1      15.049  27.759  42.902  1.00  0.00    +0.000 C 
ATOM     99  H11 UNL A   1      14.467  27.459  43.748  1.00  0.00    +0.000 H 
ATOM    100  H12 UNL A   1      14.613  28.612  42.425  1.00  0.00    +0.000 H 
BRANCH   17   16
ATOM     98  H10 UNL A   1      15.825  26.640  41.295  1.00  0.00    +0.000 H 
ATOM     16  N2  UNL A   1      15.088  26.674  41.946  1.00  0.00    +0.000 N 
BRANCH   16    2
ATOM      1  O1  UNL A   1      13.307  25.508  42.813  1.00  0.00    +0.000 O 
ATOM      2  C1  UNL A   1      14.125  25.684  41.916  1.00  0.00    +0.000 C 
BRANCH    2    3
ATOM     89  H1  UNL A   1      15.186  24.901  40.259  1.00  0.00    +0.000 H 
ATOM     90  H2  UNL A   1      13.438  25.095  40.019  1.00  0.00    +0.000 H 
ATOM      3  C2  UNL A   1      14.214  24.791  40.690  1.00  0.00    +0.000 C 
BRANCH    3    4
ATOM     97  H9  UNL A   1      12.626  22.729  39.456  1.00  0.00    +0.000 H 
ATOM      4  C3  UNL A   1      13.992  23.342  40.997  1.00  0.00    +0.000 C 
ATOM      5  C4  UNL A   1      14.537  22.581  42.065  1.00  0.00    +0.000 C 
ATOM      6  C5  UNL A   1      13.988  21.321  42.005  1.00  0.00    +0.000 C 
ATOM      7  N1  UNL A   1      13.123  21.252  40.931  1.00  0.00    +0.000 N 
ATOM     15  C12 UNL A   1      13.152  22.484  40.309  1.00  0.00    +0.000 C 
ATOM     91  H3  UNL A   1      15.223  22.914  42.761  1.00  0.00    +0.000 H 
ATOM     92  H4  UNL A   1      14.189  20.549  42.661  1.00  0.00    +0.000 H 
BRANCH    7    8
ATOM      8  C6  UNL A   1      12.326  20.134  40.573  1.00  0.00    +0.000 C 
ATOM      9  C7  UNL A   1      11.256  19.746  41.394  1.00  0.00    +0.000 C 
ATOM     10  C8  UNL A   1      10.450  18.661  41.036  1.00  0.00    +0.000 C 
ATOM     11  C9  UNL A   1      10.721  17.942  39.873  1.00  0.00    +0.000 C 
ATOM     12  C10 UNL A   1      11.789  18.314  39.060  1.00  0.00    +0.000 C 
ATOM     13  C11 UNL A   1      12.578  19.411  39.403  1.00  0.00    +0.000 C 
ATOM     14  F1  UNL A   1      13.616  19.698  38.605  1.00  0.00    +0.000 F 
ATOM     93  H5  UNL A   1      11.063  20.264  42.267  1.00  0.00    +0.000 H 
ATOM     94  H6  UNL A   1       9.654  18.392  41.635  1.00  0.00    +0.000 H 
ATOM     95  H7  UNL A   1      10.131  17.134  39.616  1.00  0.00    +0.000 H 
ATOM     96  H8  UNL A   1      11.995  17.778  38.203  1.00  0.00    +0.000 H 
ENDBRANCH    7    8
ENDBRANCH    3    4
ENDBRANCH    2    3
ENDBRANCH   16    2
ENDBRANCH   17   16
ENDBRANCH   18   17
ENDBRANCH   19   18
ENDBRANCH   20   19
ENDBRANCH   21   20
ENDBRANCH   22   21
ENDBRANCH   23   22
ENDBRANCH   24   23
ENDBRANCH   26   24
ENDBRANCH   30   29
BRANCH   34   35
ATOM     35  C28 UNL A   1      29.756  29.392  48.533  1.00  0.00    +0.000 C 
ATOM     36  C29 UNL A   1      30.909  29.207  47.757  1.00  0.00    +0.000 C 
ATOM     37  F2  UNL A   1      31.222  30.056  46.770  1.00  0.00    +0.000 F 
ATOM     38  C30 UNL A   1      31.827  28.191  48.046  1.00  0.00    +0.000 C 
ATOM     39  F3  UNL A   1      32.936  28.069  47.304  1.00  0.00    +0.000 F 
ATOM     40  C31 UNL A   1      31.637  27.353  49.133  1.00  0.00    +0.000 C 
ATOM     41  F4  UNL A   1      32.570  26.451  49.463  1.00  0.00    +0.000 F 
ATOM     42  C32 UNL A   1      30.493  27.482  49.895  1.00  0.00    +0.000 C 
ATOM     43  F5  UNL A   1      30.313  26.701  50.970  1.00  0.00    +0.000 F 
ATOM     44  C33 UNL A   1      29.554  28.463  49.583  1.00  0.00    +0.000 C 
ATOM     45  F6  UNL A   1      28.465  28.539  50.364  1.00  0.00    +0.000 F 
ENDBRANCH   34   35
BRANCH   51   52
ATOM     52  C39 UNL A   1      30.497  34.298  45.649  1.00  0.00    +0.000 C 
ATOM     53  C40 UNL A   1      29.338  33.933  44.945  1.00  0.00    +0.000 C 
ATOM     54  F7  UNL A   1      28.173  33.821  45.577  1.00  0.00    +0.000 F 
ATOM     55  C41 UNL A   1      29.343  33.669  43.577  1.00  0.00    +0.000 C 
ATOM     56  F8  UNL A   1      28.209  33.303  42.960  1.00  0.00    +0.000 F 
ATOM     57  C42 UNL A   1      30.518  33.783  42.861  1.00  0.00    +0.000 C 
ATOM     58  F9  UNL A   1      30.529  33.533  41.545  1.00  0.00    +0.000 F 
ATOM     59  C43 UNL A   1      31.683  34.146  43.520  1.00  0.00    +0.000 C 
ATOM     60  F10 UNL A   1      32.826  34.253  42.829  1.00  0.00    +0.000 F 
ATOM     61  C44 UNL A   1      31.675  34.395  44.895  1.00  0.00    +0.000 C 
ATOM     62  F11 UNL A   1      32.826  34.739  45.493  1.00  0.00    +0.000 F 
ENDBRANCH   51   52
BRANCH   66   67
ATOM     67  C48 UNL A   1      27.095  39.345  46.433  1.00  0.00    +0.000 C 
ATOM     68  C49 UNL A   1      27.898  40.117  45.546  1.00  0.00    +0.000 C 
ATOM     69  F12 UNL A   1      28.631  39.545  44.582  1.00  0.00    +0.000 F 
ATOM     70  C50 UNL A   1      27.990  41.511  45.596  1.00  0.00    +0.000 C 
ATOM     71  F13 UNL A   1      28.841  42.151  44.782  1.00  0.00    +0.000 F 
ATOM     72  C51 UNL A   1      27.224  42.218  46.489  1.00  0.00    +0.000 C 
ATOM     73  F14 UNL A   1      27.324  43.551  46.563  1.00  0.00    +0.000 F 
ATOM     74  C52 UNL A   1      26.335  41.527  47.289  1.00  0.00    +0.000 C 
ATOM     75  F15 UNL A   1      25.532  42.208  48.119  1.00  0.00    +0.000 F 
ATOM     76  C53 UNL A   1      26.263  40.123  47.252  1.00  0.00    +0.000 C 
ATOM     77  F16 UNL A   1      25.322  39.570  48.019  1.00  0.00    +0.000 F 
ENDBRANCH   66   67
TORSDOF 17
ENDMDL
MODEL 2
REMARK VINA RESULT:     -12.0     18.889     23.785
ROOT
ATOM     30  C24 UNL A   1      40.200  29.132  29.006  1.00  0.00    +0.000 C 
ATOM     31  C25 UNL A   1      38.949  29.991  29.213  1.00  0.00    +0.000 C 
ATOM     32  N4  UNL A   1      38.821  31.281  29.298  1.00  0.00    +0.000 N 
ATOM     33  C26 UNL A   1      37.470  31.549  29.598  1.00  0.00    +0.000 C 
ATOM     34  C27 UNL A   1      37.016  32.750  30.060  1.00  0.00    +0.000 C 
ATOM     46  C34 UNL A   1      38.065  33.708  30.132  1.00  0.00    +0.000 C 
ATOM     47  C35 UNL A   1      38.700  34.489  29.204  1.00  0.00    +0.000 C 
ATOM     48  C36 UNL A   1      39.975  34.746  29.758  1.00  0.00    +0.000 C 
ATOM     49  C37 UNL A   1      40.054  34.140  31.015  1.00  0.00    +0.000 C 
ATOM     50  N5  UNL A   1      38.759  33.786  31.313  1.00  0.00    +0.000 N 
ATOM     51  C38 UNL A   1      41.099  33.650  31.889  1.00  0.00    +0.000 C 
ATOM     63  C45 UNL A   1      42.377  33.735  31.445  1.00  0.00    +0.000 C 
ATOM     64  N6  UNL A   1      43.235  32.670  31.622  1.00  0.00    +0.000 N 
ATOM     65  C46 UNL A   1      43.808  32.566  30.459  1.00  0.00    +0.000 C 
ATOM     66  C47 UNL A   1      44.544  31.378  29.983  1.00  0.00    +0.000 C 
ATOM     78  C54 UNL A   1      43.595  30.429  29.710  1.00  0.00    +0.000 C 
ATOM     79  C55 UNL A   1      43.797  29.066  29.262  1.00  0.00    +0.000 C 
ATOM     80  C56 UNL A   1      42.612  28.483  29.008  1.00  0.00    +0.000 C 
ATOM     81  C57 UNL A   1      41.508  29.423  29.255  1.00  0.00    +0.000 C 
ATOM     82  N7  UNL A   1      42.180  30.530  29.740  1.00  0.00    +0.000 N 
ATOM     83  C58 UNL A   1      43.627  33.702  29.546  1.00  0.00    +0.000 C 
ATOM     84  C59 UNL A   1      42.871  34.480  30.314  1.00  0.00    +0.000 C 
ATOM     85  C60 UNL A   1      36.768  30.307  29.467  1.00  0.00    +0.000 C 
ATOM     86  C61 UNL A   1      37.630  29.307  29.282  1.00  0.00    +0.000 C 
ATOM    114  H26 UNL A   1      38.329  34.819  28.299  1.00  0.00    +0.000 H 
ATOM    115  H27 UNL A   1      40.726  35.293  29.308  1.00  0.00    +0.000 H 
ATOM    116  H28 UNL A   1      38.396  33.619  32.212  1.00  0.00    +0.000 H 
ATOM    117  H29 UNL A   1      44.717  28.608  29.153  1.00  0.00    +0.000 H 
ATOM    118  H30 UNL A   1      42.492  27.510  28.686  1.00  0.00    +0.000 H 
ATOM    119  H31 UNL A   1      41.713  31.328  30.080  1.00  0.00    +0.000 H 
ATOM    120  H32 UNL A   1      43.984  33.853  28.589  1.00  0.00    +0.000 H 
ATOM    121  H33 UNL A   1      42.666  35.475  30.127  1.00  0.00    +0.000 H 
ATOM    122  H34 UNL A   1      35.742  30.202  29.510  1.00  0.00    +0.000 H 
ATOM    123  H35 UNL A   1      37.429  28.298  29.206  1.00  0.00    +0.000 H 
ENDROOT
BRANCH   30   29
ATOM    124  H36 UNL A   1      40.539  28.260  26.456  1.00  0.00    +0.000 H 
ATOM     29  C23 UNL A   1      39.904  27.799  28.424  1.00  0.00    +0.000 C 
ATOM    112  H24 UNL A   1      38.934  24.751  29.412  1.00  0.00    +0.000 H 
ATOM    113  H25 UNL A   1      39.145  27.021  30.238  1.00  0.00    +0.000 H 
ATOM     87  C62 UNL A   1      40.210  27.511  27.085  1.00  0.00    +0.000 C 
ATOM     88  C63 UNL A   1      40.070  26.208  26.608  1.00  0.00    +0.000 C 
ATOM     26  C20 UNL A   1      39.655  25.191  27.474  1.00  0.00    +0.000 C 
ATOM     27  C21 UNL A   1      39.292  25.494  28.792  1.00  0.00    +0.000 C 
ATOM     28  C22 UNL A   1      39.414  26.795  29.268  1.00  0.00    +0.000 C 
ATOM    125  H37 UNL A   1      40.271  25.995  25.619  1.00  0.00    +0.000 H 
BRANCH   26   24
ATOM     25  O2  UNL A   1      40.312  22.948  27.402  1.00  0.00    +0.000 O 
ATOM     24  C19 UNL A   1      39.504  23.786  27.032  1.00  0.00    +0.000 C 
BRANCH   24   23
ATOM    111  H23 UNL A   1      37.955  24.142  25.799  1.00  0.00    +0.000 H 
ATOM     23  N3  UNL A   1      38.486  23.410  26.188  1.00  0.00    +0.000 N 
BRANCH   23   22
ATOM    110  H22 UNL A   1      37.565  21.616  26.611  1.00  0.00    +0.000 H 
ATOM    109  H21 UNL A   1      38.978  21.499  25.568  1.00  0.00    +0.000 H 
ATOM     22  C18 UNL A   1      38.098  22.063  25.799  1.00  0.00    +0.000 C 
BRANCH   22   21
ATOM    107  H19 UNL A   1      37.799  22.053  23.696  1.00  0.00    +0.000 H 
ATOM    108  H20 UNL A   1      36.537  21.238  24.657  1.00  0.00    +0.000 H 
ATOM     21  C17 UNL A   1      37.185  22.086  24.572  1.00  0.00    +0.000 C 
BRANCH   21   20
ATOM    105  H17 UNL A   1      35.746  23.411  25.402  1.00  0.00    +0.000 H 
ATOM    106  H18 UNL A   1      36.929  24.150  24.281  1.00  0.00    +0.000 H 
ATOM     20  C16 UNL A   1      36.280  23.322  24.480  1.00  0.00    +0.000 C 
BRANCH   20   19
ATOM     19  C15 UNL A   1      35.259  23.298  23.339  1.00  0.00    +0.000 C 
ATOM    103  H15 UNL A   1      35.164  24.293  22.960  1.00  0.00    +0.000 H 
ATOM    104  H16 UNL A   1      35.635  22.599  22.621  1.00  0.00    +0.000 H 
BRANCH   19   18
ATOM     18  C14 UNL A   1      33.859  22.801  23.723  1.00  0.00    +0.000 C 
ATOM    101  H13 UNL A   1      33.905  21.739  23.842  1.00  0.00    +0.000 H 
ATOM    102  H14 UNL A   1      33.593  23.317  24.622  1.00  0.00    +0.000 H 
BRANCH   18   17
ATOM     17  C13 UNL A   1      32.760  23.117  22.708  1.00  0.00    +0.000 C 
ATOM     99  H11 UNL A   1      32.591  22.254  22.098  1.00  0.00    +0.000 H 
ATOM    100  H12 UNL A   1      31.872  23.382  23.243  1.00  0.00    +0.000 H 
BRANCH   17   16
ATOM     98  H10 UNL A   1      33.737  24.067  21.102  1.00  0.00    +0.000 H 
ATOM     16  N2  UNL A   1      33.130  24.228  21.861  1.00  0.00    +0.000 N 
BRANCH   16    2
ATOM      1  O1  UNL A   1      31.491  25.839  21.917  1.00  0.00    +0.000 O 
ATOM      2  C1  UNL A   1      32.662  25.509  22.078  1.00  0.00    +0.000 C 
BRANCH    2    3
ATOM     89  H1  UNL A   1      33.769  27.288  21.766  1.00  0.00    +0.000 H 
ATOM     90  H2  UNL A   1      34.672  25.951  22.505  1.00  0.00    +0.000 H 
ATOM      3  C2  UNL A   1      33.750  26.491  22.480  1.00  0.00    +0.000 C 
BRANCH    3    4
ATOM     97  H9  UNL A   1      33.018  29.117  23.411  1.00  0.00    +0.000 H 
ATOM      4  C3  UNL A   1      33.543  27.078  23.842  1.00  0.00    +0.000 C 
ATOM      5  C4  UNL A   1      33.689  26.439  25.101  1.00  0.00    +0.000 C 
ATOM      6  C5  UNL A   1      33.488  27.385  26.078  1.00  0.00    +0.000 C 
ATOM      7  N1  UNL A   1      33.208  28.600  25.485  1.00  0.00    +0.000 N 
ATOM     15  C12 UNL A   1      33.220  28.396  24.120  1.00  0.00    +0.000 C 
ATOM     91  H3  UNL A   1      33.907  25.442  25.255  1.00  0.00    +0.000 H 
ATOM     92  H4  UNL A   1      33.539  27.215  27.096  1.00  0.00    +0.000 H 
BRANCH    7    8
ATOM      8  C6  UNL A   1      32.994  29.829  26.161  1.00  0.00    +0.000 C 
ATOM      9  C7  UNL A   1      33.975  30.326  27.034  1.00  0.00    +0.000 C 
ATOM     10  C8  UNL A   1      33.784  31.549  27.685  1.00  0.00    +0.000 C 
ATOM     11  C9  UNL A   1      32.608  32.269  27.491  1.00  0.00    +0.000 C 
ATOM     12  C10 UNL A   1      31.625  31.775  26.635  1.00  0.00    +0.000 C 
ATOM     13  C11 UNL A   1      31.824  30.570  25.966  1.00  0.00    +0.000 C 
ATOM     14  F1  UNL A   1      30.828  30.123  25.188  1.00  0.00    +0.000 F 
ATOM     93  H5  UNL A   1      34.841  29.787  27.196  1.00  0.00    +0.000 H 
ATOM     94  H6  UNL A   1      34.517  31.918  28.312  1.00  0.00    +0.000 H 
ATOM     95  H7  UNL A   1      32.464  33.167  27.981  1.00  0.00    +0.000 H 
ATOM     96  H8  UNL A   1      30.750  32.304  26.496  1.00  0.00    +0.000 H 
ENDBRANCH    7    8
ENDBRANCH    3    4
ENDBRANCH    2    3
ENDBRANCH   16    2
ENDBRANCH   17   16
ENDBRANCH   18   17
ENDBRANCH   19   18
ENDBRANCH   20   19
ENDBRANCH   21   20
ENDBRANCH   22   21
ENDBRANCH   23   22
ENDBRANCH   24   23
ENDBRANCH   26   24
ENDBRANCH   30   29
BRANCH   34   35
ATOM     35  C28 UNL A   1      35.695  33.127  30.675  1.00  0.00    +0.000 C 
ATOM     36  C29 UNL A   1      35.334  32.796  31.989  1.00  0.00    +0.000 C 
ATOM     37  F2  UNL A   1      36.037  31.901  32.695  1.00  0.00    +0.000 F 
ATOM     38  C30 UNL A   1      34.290  33.457  32.647  1.00  0.00    +0.000 C 
ATOM     39  F3  UNL A   1      34.000  33.137  33.916  1.00  0.00    +0.000 F 
ATOM     40  C31 UNL A   1      33.601  34.486  32.026  1.00  0.00    +0.000 C 
ATOM     41  F4  UNL A   1      32.673  35.181  32.698  1.00  0.00    +0.000 F 
ATOM     42  C32 UNL A   1      33.904  34.812  30.720  1.00  0.00    +0.000 C 
ATOM     43  F5  UNL A   1      33.269  35.827  30.118  1.00  0.00    +0.000 F 
ATOM     44  C33 UNL A   1      34.912  34.124  30.045  1.00  0.00    +0.000 C 
ATOM     45  F6  UNL A   1      35.160  34.492  28.778  1.00  0.00    +0.000 F 
ENDBRANCH   34   35
BRANCH   51   52
ATOM     52  C39 UNL A   1      40.920  32.639  32.999  1.00  0.00    +0.000 C 
ATOM     53  C40 UNL A   1      40.461  31.330  32.780  1.00  0.00    +0.000 C 
ATOM     54  F7  UNL A   1      40.039  30.956  31.575  1.00  0.00    +0.000 F 
ATOM     55  C41 UNL A   1      40.420  30.371  33.790  1.00  0.00    +0.000 C 
ATOM     56  F8  UNL A   1      39.952  29.141  33.527  1.00  0.00    +0.000 F 
ATOM     57  C42 UNL A   1      40.858  30.691  35.059  1.00  0.00    +0.000 C 
ATOM     58  F9  UNL A   1      40.823  29.773  36.033  1.00  0.00    +0.000 F 
ATOM     59  C43 UNL A   1      41.322  31.972  35.314  1.00  0.00    +0.000 C 
ATOM     60  F10 UNL A   1      41.745  32.289  36.545  1.00  0.00    +0.000 F 
ATOM     61  C44 UNL A   1      41.348  32.935  34.300  1.00  0.00    +0.000 C 
ATOM     62  F11 UNL A   1      41.801  34.164  34.592  1.00  0.00    +0.000 F 
ENDBRANCH   51   52
BRANCH   66   67
ATOM     67  C48 UNL A   1      46.049  31.509  29.825  1.00  0.00    +0.000 C 
ATOM     68  C49 UNL A   1      46.654  31.344  28.545  1.00  0.00    +0.000 C 
ATOM     69  F12 UNL A   1      45.924  31.286  27.424  1.00  0.00    +0.000 F 
ATOM     70  C50 UNL A   1      48.033  31.232  28.348  1.00  0.00    +0.000 C 
ATOM     71  F13 UNL A   1      48.512  30.986  27.119  1.00  0.00    +0.000 F 
ATOM     72  C51 UNL A   1      48.892  31.356  29.412  1.00  0.00    +0.000 C 
ATOM     73  F14 UNL A   1      50.213  31.225  29.237  1.00  0.00    +0.000 F 
ATOM     74  C52 UNL A   1      48.365  31.642  30.655  1.00  0.00    +0.000 C 
ATOM     75  F15 UNL A   1      49.194  31.832  31.692  1.00  0.00    +0.000 F 
ATOM     76  C53 UNL A   1      46.975  31.729  30.855  1.00  0.00    +0.000 C 
ATOM     77  F16 UNL A   1      46.585  32.075  32.083  1.00  0.00    +0.000 F 
ENDBRANCH   66   67
TORSDOF 17
ENDMDL
MODEL 3
REMARK VINA RESULT:     -11.9     18.845     23.305
ROOT
ATOM     30  C24 UNL A   1      40.225  29.133  29.545  1.00  0.00    +0.000 C 
ATOM     31  C25 UNL A   1      39.029  30.081  29.407  1.00  0.00    +0.000 C 
ATOM     32  N4  UNL A   1      38.980  31.380  29.440  1.00  0.00    +0.000 N 
ATOM     33  C26 UNL A   1      37.621  31.748  29.374  1.00  0.00    +0.000 C 
ATOM     34  C27 UNL A   1      37.152  32.991  29.686  1.00  0.00    +0.000 C 
ATOM     46  C34 UNL A   1      38.215  33.877  30.018  1.00  0.00    +0.000 C 
ATOM     47  C35 UNL A   1      39.125  34.584  29.279  1.00  0.00    +0.000 C 
ATOM     48  C36 UNL A   1      40.228  34.770  30.144  1.00  0.00    +0.000 C 
ATOM     49  C37 UNL A   1      39.932  34.200  31.384  1.00  0.00    +0.000 C 
ATOM     50  N5  UNL A   1      38.582  33.944  31.338  1.00  0.00    +0.000 N 
ATOM     51  C38 UNL A   1      40.675  33.667  32.507  1.00  0.00    +0.000 C 
ATOM     63  C45 UNL A   1      42.027  33.650  32.412  1.00  0.00    +0.000 C 
ATOM     64  N6  UNL A   1      42.728  32.535  32.821  1.00  0.00    +0.000 N 
ATOM     65  C46 UNL A   1      43.575  32.356  31.849  1.00  0.00    +0.000 C 
ATOM     66  C47 UNL A   1      44.319  31.107  31.597  1.00  0.00    +0.000 C 
ATOM     78  C54 UNL A   1      43.406  30.216  31.097  1.00  0.00    +0.000 C 
ATOM     79  C55 UNL A   1      43.616  28.829  30.734  1.00  0.00    +0.000 C 
ATOM     80  C56 UNL A   1      42.497  28.321  30.186  1.00  0.00    +0.000 C 
ATOM     81  C57 UNL A   1      41.440  29.342  30.124  1.00  0.00    +0.000 C 
ATOM     82  N7  UNL A   1      42.043  30.415  30.755  1.00  0.00    +0.000 N 
ATOM     83  C58 UNL A   1      43.722  33.473  30.907  1.00  0.00    +0.000 C 
ATOM     84  C59 UNL A   1      42.852  34.325  31.441  1.00  0.00    +0.000 C 
ATOM     85  C60 UNL A   1      36.887  30.554  29.079  1.00  0.00    +0.000 C 
ATOM     86  C61 UNL A   1      37.691  29.492  29.138  1.00  0.00    +0.000 C 
ATOM    114  H26 UNL A   1      39.028  34.910  28.305  1.00  0.00    +0.000 H 
ATOM    115  H27 UNL A   1      41.108  35.250  29.899  1.00  0.00    +0.000 H 
ATOM    116  H28 UNL A   1      37.986  33.830  32.113  1.00  0.00    +0.000 H 
ATOM    117  H29 UNL A   1      44.496  28.307  30.875  1.00  0.00    +0.000 H 
ATOM    118  H30 UNL A   1      42.394  27.349  29.856  1.00  0.00    +0.000 H 
ATOM    119  H31 UNL A   1      41.564  31.253  30.950  1.00  0.00    +0.000 H 
ATOM    120  H32 UNL A   1      44.325  33.569  30.075  1.00  0.00    +0.000 H 
ATOM    121  H33 UNL A   1      42.777  35.325  31.194  1.00  0.00    +0.000 H 
ATOM    122  H34 UNL A   1      35.880  30.520  28.853  1.00  0.00    +0.000 H 
ATOM    123  H35 UNL A   1      37.443  28.497  29.024  1.00  0.00    +0.000 H 
ENDROOT
BRANCH   30   29
ATOM    124  H36 UNL A   1      39.057  26.923  30.606  1.00  0.00    +0.000 H 
ATOM     29  C23 UNL A   1      39.992  27.806  28.923  1.00  0.00    +0.000 C 
ATOM    112  H24 UNL A   1      40.288  26.306  25.944  1.00  0.00    +0.000 H 
ATOM    113  H25 UNL A   1      40.918  28.343  27.099  1.00  0.00    +0.000 H 
ATOM     87  C62 UNL A   1      39.306  26.795  29.613  1.00  0.00    +0.000 C 
ATOM     88  C63 UNL A   1      38.962  25.617  28.951  1.00  0.00    +0.000 C 
ATOM     26  C20 UNL A   1      39.274  25.462  27.597  1.00  0.00    +0.000 C 
ATOM     27  C21 UNL A   1      40.012  26.447  26.929  1.00  0.00    +0.000 C 
ATOM     28  C22 UNL A   1      40.373  27.617  27.589  1.00  0.00    +0.000 C 
ATOM    125  H37 UNL A   1      38.478  24.860  29.460  1.00  0.00    +0.000 H 
BRANCH   26   24
ATOM     25  O2  UNL A   1      39.722  23.325  26.760  1.00  0.00    +0.000 O 
ATOM     24  C19 UNL A   1      38.920  24.243  26.835  1.00  0.00    +0.000 C 
BRANCH   24   23
ATOM    111  H23 UNL A   1      36.997  24.732  26.500  1.00  0.00    +0.000 H 
ATOM     23  N3  UNL A   1      37.713  24.136  26.183  1.00  0.00    +0.000 N 
BRANCH   23   22
ATOM    110  H22 UNL A   1      37.595  22.245  25.373  1.00  0.00    +0.000 H 
ATOM    109  H21 UNL A   1      37.928  23.530  24.218  1.00  0.00    +0.000 H 
ATOM     22  C18 UNL A   1      37.366  23.249  25.084  1.00  0.00    +0.000 C 
BRANCH   22   21
ATOM    107  H19 UNL A   1      35.768  23.459  23.702  1.00  0.00    +0.000 H 
ATOM    108  H20 UNL A   1      35.431  22.425  25.115  1.00  0.00    +0.000 H 
ATOM     21  C17 UNL A   1      35.874  23.332  24.760  1.00  0.00    +0.000 C 
BRANCH   21   20
ATOM    105  H17 UNL A   1      35.825  24.957  26.128  1.00  0.00    +0.000 H 
ATOM    106  H18 UNL A   1      34.788  25.127  24.679  1.00  0.00    +0.000 H 
ATOM     20  C16 UNL A   1      35.138  24.483  25.459  1.00  0.00    +0.000 C 
BRANCH   20   19
ATOM     19  C15 UNL A   1      33.900  24.072  26.260  1.00  0.00    +0.000 C 
ATOM    103  H15 UNL A   1      34.160  24.082  27.298  1.00  0.00    +0.000 H 
ATOM    104  H16 UNL A   1      33.135  24.775  26.003  1.00  0.00    +0.000 H 
BRANCH   19   18
ATOM     18  C14 UNL A   1      33.332  22.686  25.926  1.00  0.00    +0.000 C 
ATOM    101  H13 UNL A   1      34.006  22.207  25.248  1.00  0.00    +0.000 H 
ATOM    102  H14 UNL A   1      33.231  22.171  26.859  1.00  0.00    +0.000 H 
BRANCH   18   17
ATOM     17  C13 UNL A   1      31.943  22.693  25.289  1.00  0.00    +0.000 C 
ATOM     99  H11 UNL A   1      31.323  21.984  25.797  1.00  0.00    +0.000 H 
ATOM    100  H12 UNL A   1      31.538  23.680  25.373  1.00  0.00    +0.000 H 
BRANCH   17   16
ATOM     98  H10 UNL A   1      31.737  21.440  23.609  1.00  0.00    +0.000 H 
ATOM     16  N2  UNL A   1      32.006  22.345  23.886  1.00  0.00    +0.000 N 
BRANCH   16    2
ATOM      1  O1  UNL A   1      33.413  23.055  22.214  1.00  0.00    +0.000 O 
ATOM      2  C1  UNL A   1      32.429  23.240  22.923  1.00  0.00    +0.000 C 
BRANCH    2    3
ATOM     89  H1  UNL A   1      30.753  24.391  23.516  1.00  0.00    +0.000 H 
ATOM     90  H2  UNL A   1      31.296  24.644  21.846  1.00  0.00    +0.000 H 
ATOM      3  C2  UNL A   1      31.593  24.507  22.864  1.00  0.00    +0.000 C 
BRANCH    3    4
ATOM     97  H9  UNL A   1      31.433  26.254  25.148  1.00  0.00    +0.000 H 
ATOM      4  C3  UNL A   1      32.348  25.733  23.275  1.00  0.00    +0.000 C 
ATOM      5  C4  UNL A   1      33.392  26.393  22.575  1.00  0.00    +0.000 C 
ATOM      6  C5  UNL A   1      33.723  27.524  23.283  1.00  0.00    +0.000 C 
ATOM      7  N1  UNL A   1      32.935  27.600  24.414  1.00  0.00    +0.000 N 
ATOM     15  C12 UNL A   1      32.116  26.488  24.412  1.00  0.00    +0.000 C 
ATOM     91  H3  UNL A   1      33.825  26.079  21.692  1.00  0.00    +0.000 H 
ATOM     92  H4  UNL A   1      34.446  28.210  23.012  1.00  0.00    +0.000 H 
BRANCH    7    8
ATOM      8  C6  UNL A   1      32.943  28.651  25.368  1.00  0.00    +0.000 C 
ATOM      9  C7  UNL A   1      34.001  28.753  26.285  1.00  0.00    +0.000 C 
ATOM     10  C8  UNL A   1      34.030  29.800  27.212  1.00  0.00    +0.000 C 
ATOM     11  C9  UNL A   1      32.997  30.734  27.246  1.00  0.00    +0.000 C 
ATOM     12  C10 UNL A   1      31.939  30.631  26.346  1.00  0.00    +0.000 C 
ATOM     13  C11 UNL A   1      31.920  29.603  25.406  1.00  0.00    +0.000 C 
ATOM     14  F1  UNL A   1      30.857  29.528  24.592  1.00  0.00    +0.000 F 
ATOM     93  H5  UNL A   1      34.760  28.053  26.276  1.00  0.00    +0.000 H 
ATOM     94  H6  UNL A   1      34.819  29.881  27.872  1.00  0.00    +0.000 H 
ATOM     95  H7  UNL A   1      33.015  31.501  27.938  1.00  0.00    +0.000 H 
ATOM     96  H8  UNL A   1      31.168  31.317  26.375  1.00  0.00    +0.000 H 
ENDBRANCH    7    8
ENDBRANCH    3    4
ENDBRANCH    2    3
ENDBRANCH   16    2
ENDBRANCH   17   16
ENDBRANCH   18   17
ENDBRANCH   19   18
ENDBRANCH   20   19
ENDBRANCH   21   20
ENDBRANCH   22   21
ENDBRANCH   23   22
ENDBRANCH   24   23
ENDBRANCH   26   24
ENDBRANCH   30   29
BRANCH   34   35
ATOM     35  C28 UNL A   1      35.749  33.477  29.929  1.00  0.00    +0.000 C 
ATOM     36  C29 UNL A   1      35.193  33.616  31.209  1.00  0.00    +0.000 C 
ATOM     37  F2  UNL A   1      35.787  33.082  32.283  1.00  0.00    +0.000 F 
ATOM     38  C30 UNL A   1      34.054  34.400  31.428  1.00  0.00    +0.000 C 
ATOM     39  F3  UNL A   1      33.574  34.539  32.671  1.00  0.00    +0.000 F 
ATOM     40  C31 UNL A   1      33.458  35.090  30.384  1.00  0.00    +0.000 C 
ATOM     41  F4  UNL A   1      32.432  35.918  30.619  1.00  0.00    +0.000 F 
ATOM     42  C32 UNL A   1      33.955  34.944  29.105  1.00  0.00    +0.000 C 
ATOM     43  F5  UNL A   1      33.411  35.633  28.092  1.00  0.00    +0.000 F 
ATOM     44  C33 UNL A   1      35.062  34.128  28.876  1.00  0.00    +0.000 C 
ATOM     45  F6  UNL A   1      35.500  34.032  27.611  1.00  0.00    +0.000 F 
ENDBRANCH   34   35
BRANCH   51   52
ATOM     52  C39 UNL A   1      40.139  32.705  33.545  1.00  0.00    +0.000 C 
ATOM     53  C40 UNL A   1      40.073  33.011  34.914  1.00  0.00    +0.000 C 
ATOM     54  F7  UNL A   1      40.604  34.139  35.379  1.00  0.00    +0.000 F 
ATOM     55  C41 UNL A   1      39.464  32.169  35.842  1.00  0.00    +0.000 C 
ATOM     56  F8  UNL A   1      39.448  32.503  37.141  1.00  0.00    +0.000 F 
ATOM     57  C42 UNL A   1      38.881  30.991  35.420  1.00  0.00    +0.000 C 
ATOM     58  F9  UNL A   1      38.292  30.178  36.307  1.00  0.00    +0.000 F 
ATOM     59  C43 UNL A   1      38.923  30.656  34.075  1.00  0.00    +0.000 C 
ATOM     60  F10 UNL A   1      38.361  29.511  33.662  1.00  0.00    +0.000 F 
ATOM     61  C44 UNL A   1      39.547  31.498  33.150  1.00  0.00    +0.000 C 
ATOM     62  F11 UNL A   1      39.568  31.133  31.859  1.00  0.00    +0.000 F 
ENDBRANCH   51   52
BRANCH   66   67
ATOM     67  C48 UNL A   1      45.819  31.129  31.836  1.00  0.00    +0.000 C 
ATOM     68  C49 UNL A   1      46.722  30.963  30.747  1.00  0.00    +0.000 C 
ATOM     69  F12 UNL A   1      46.306  30.998  29.475  1.00  0.00    +0.000 F 
ATOM     70  C50 UNL A   1      48.096  30.755  30.903  1.00  0.00    +0.000 C 
ATOM     71  F13 UNL A   1      48.859  30.515  29.828  1.00  0.00    +0.000 F 
ATOM     72  C51 UNL A   1      48.656  30.778  32.157  1.00  0.00    +0.000 C 
ATOM     73  F14 UNL A   1      49.965  30.553  32.319  1.00  0.00    +0.000 F 
ATOM     74  C52 UNL A   1      47.844  31.059  33.238  1.00  0.00    +0.000 C 
ATOM     75  F15 UNL A   1      48.387  31.151  34.460  1.00  0.00    +0.000 F 
ATOM     76  C53 UNL A   1      46.459  31.244  33.079  1.00  0.00    +0.000 C 
ATOM     77  F16 UNL A   1      45.787  31.576  34.183  1.00  0.00    +0.000 F 
ENDBRANCH   66   67
TORSDOF 17
ENDMDL
MODEL 4
REMARK VINA RESULT:     -11.9      7.583     13.889
ROOT
ATOM     30  C24 UNL A   1      23.004  36.246  50.120  1.00  0.00    +0.000 C 
ATOM     31  C25 UNL A   1      24.090  36.302  49.041  1.00  0.00    +0.000 C 
ATOM     32  N4  UNL A   1      24.039  36.751  47.822  1.00  0.00    +0.000 N 
ATOM     33  C26 UNL A   1      25.283  36.468  47.220  1.00  0.00    +0.000 C 
ATOM     34  C27 UNL A   1      25.505  36.509  45.875  1.00  0.00    +0.000 C 
ATOM     46  C34 UNL A   1      24.345  36.937  45.171  1.00  0.00    +0.000 C 
ATOM     47  C35 UNL A   1      23.769  38.159  44.948  1.00  0.00    +0.000 C 
ATOM     48  C36 UNL A   1      22.401  37.879  44.725  1.00  0.00    +0.000 C 
ATOM     49  C37 UNL A   1      22.205  36.497  44.787  1.00  0.00    +0.000 C 
ATOM     50  N5  UNL A   1      23.471  35.964  44.757  1.00  0.00    +0.000 N 
ATOM     51  C38 UNL A   1      21.107  35.597  45.069  1.00  0.00    +0.000 C 
ATOM     63  C45 UNL A   1      19.912  36.148  45.397  1.00  0.00    +0.000 C 
ATOM     64  N6  UNL A   1      19.179  35.622  46.439  1.00  0.00    +0.000 N 
ATOM     65  C46 UNL A   1      18.811  36.684  47.096  1.00  0.00    +0.000 C 
ATOM     66  C47 UNL A   1      18.313  36.687  48.485  1.00  0.00    +0.000 C 
ATOM     78  C54 UNL A   1      19.405  36.453  49.279  1.00  0.00    +0.000 C 
ATOM     79  C55 UNL A   1      19.448  36.310  50.721  1.00  0.00    +0.000 C 
ATOM     80  C56 UNL A   1      20.723  36.190  51.134  1.00  0.00    +0.000 C 
ATOM     81  C57 UNL A   1      21.648  36.259  49.992  1.00  0.00    +0.000 C 
ATOM     82  N7  UNL A   1      20.774  36.341  48.923  1.00  0.00    +0.000 N 
ATOM     83  C58 UNL A   1      18.987  37.966  46.402  1.00  0.00    +0.000 C 
ATOM     84  C59 UNL A   1      19.511  37.526  45.261  1.00  0.00    +0.000 C 
ATOM     85  C60 UNL A   1      26.148  36.007  48.266  1.00  0.00    +0.000 C 
ATOM     86  C61 UNL A   1      25.457  35.836  49.393  1.00  0.00    +0.000 C 
ATOM    114  H26 UNL A   1      24.231  39.081  44.943  1.00  0.00    +0.000 H 
ATOM    115  H27 UNL A   1      21.666  38.581  44.545  1.00  0.00    +0.000 H 
ATOM    116  H28 UNL A   1      23.709  35.047  44.486  1.00  0.00    +0.000 H 
ATOM    117  H29 UNL A   1      18.622  36.302  51.340  1.00  0.00    +0.000 H 
ATOM    118  H30 UNL A   1      21.013  36.067  52.117  1.00  0.00    +0.000 H 
ATOM    119  H31 UNL A   1      21.079  36.323  47.987  1.00  0.00    +0.000 H 
ATOM    120  H32 UNL A   1      18.767  38.926  46.709  1.00  0.00    +0.000 H 
ATOM    121  H33 UNL A   1      19.615  38.091  44.403  1.00  0.00    +0.000 H 
ATOM    122  H34 UNL A   1      27.159  35.832  48.160  1.00  0.00    +0.000 H 
ATOM    123  H35 UNL A   1      25.793  35.468  50.297  1.00  0.00    +0.000 H 
ENDROOT
BRANCH   30   29
ATOM    124  H36 UNL A   1      23.749  34.084  51.584  1.00  0.00    +0.000 H 
ATOM     29  C23 UNL A   1      23.553  36.191  51.498  1.00  0.00    +0.000 C 
ATOM    112  H24 UNL A   1      24.615  38.270  53.898  1.00  0.00    +0.000 H 
ATOM    113  H25 UNL A   1      23.443  38.285  51.775  1.00  0.00    +0.000 H 
ATOM     87  C62 UNL A   1      23.945  34.972  52.071  1.00  0.00    +0.000 C 
ATOM     88  C63 UNL A   1      24.602  34.966  53.301  1.00  0.00    +0.000 C 
ATOM     26  C20 UNL A   1      24.894  36.175  53.941  1.00  0.00    +0.000 C 
ATOM     27  C21 UNL A   1      24.446  37.384  53.395  1.00  0.00    +0.000 C 
ATOM     28  C22 UNL A   1      23.775  37.395  52.177  1.00  0.00    +0.000 C 
ATOM    125  H37 UNL A   1      24.873  34.071  53.738  1.00  0.00    +0.000 H 
BRANCH   26   24
ATOM     25  O2  UNL A   1      24.974  36.449  56.262  1.00  0.00    +0.000 O 
ATOM     24  C19 UNL A   1      25.605  36.234  55.238  1.00  0.00    +0.000 C 
BRANCH   24   23
ATOM    111  H23 UNL A   1      27.301  35.494  56.028  1.00  0.00    +0.000 H 
ATOM     23  N3  UNL A   1      26.970  36.081  55.310  1.00  0.00    +0.000 N 
BRANCH   23   22
ATOM    110  H22 UNL A   1      28.853  36.874  55.048  1.00  0.00    +0.000 H 
ATOM    109  H21 UNL A   1      27.598  37.588  54.043  1.00  0.00    +0.000 H 
ATOM     22  C18 UNL A   1      27.984  36.680  54.457  1.00  0.00    +0.000 C 
BRANCH   22   21
ATOM    107  H19 UNL A   1      29.391  35.443  53.458  1.00  0.00    +0.000 H 
ATOM    108  H20 UNL A   1      27.692  34.911  53.357  1.00  0.00    +0.000 H 
ATOM     21  C17 UNL A   1      28.372  35.737  53.318  1.00  0.00    +0.000 C 
BRANCH   21   20
ATOM    105  H17 UNL A   1      29.219  36.447  51.502  1.00  0.00    +0.000 H 
ATOM    106  H18 UNL A   1      27.604  35.688  51.364  1.00  0.00    +0.000 H 
ATOM     20  C16 UNL A   1      28.238  36.350  51.917  1.00  0.00    +0.000 C 
BRANCH   20   19
ATOM     19  C15 UNL A   1      27.563  37.724  51.869  1.00  0.00    +0.000 C 
ATOM    103  H15 UNL A   1      26.805  37.694  51.116  1.00  0.00    +0.000 H 
ATOM    104  H16 UNL A   1      27.183  37.900  52.853  1.00  0.00    +0.000 H 
BRANCH   19   18
ATOM     18  C14 UNL A   1      28.497  38.902  51.557  1.00  0.00    +0.000 C 
ATOM    101  H13 UNL A   1      27.895  39.778  51.435  1.00  0.00    +0.000 H 
ATOM    102  H14 UNL A   1      29.181  38.967  52.378  1.00  0.00    +0.000 H 
BRANCH   18   17
ATOM     17  C13 UNL A   1      29.351  38.734  50.301  1.00  0.00    +0.000 C 
ATOM     99  H11 UNL A   1      30.305  38.338  50.579  1.00  0.00    +0.000 H 
ATOM    100  H12 UNL A   1      28.844  38.068  49.634  1.00  0.00    +0.000 H 
BRANCH   17   16
ATOM     98  H10 UNL A   1      30.084  40.694  50.060  1.00  0.00    +0.000 H 
ATOM     16  N2  UNL A   1      29.544  39.997  49.623  1.00  0.00    +0.000 N 
BRANCH   16    2
ATOM      1  O1  UNL A   1      29.284  41.244  47.710  1.00  0.00    +0.000 O 
ATOM      2  C1  UNL A   1      28.996  40.259  48.382  1.00  0.00    +0.000 C 
BRANCH    2    3
ATOM     89  H1  UNL A   1      28.015  38.395  48.606  1.00  0.00    +0.000 H 
ATOM     90  H2  UNL A   1      28.162  38.981  46.937  1.00  0.00    +0.000 H 
ATOM      3  C2  UNL A   1      27.954  39.241  47.953  1.00  0.00    +0.000 C 
BRANCH    3    4
ATOM     97  H9  UNL A   1      25.926  39.308  49.998  1.00  0.00    +0.000 H 
ATOM      4  C3  UNL A   1      26.554  39.773  47.997  1.00  0.00    +0.000 C 
ATOM      5  C4  UNL A   1      25.826  40.403  46.954  1.00  0.00    +0.000 C 
ATOM      6  C5  UNL A   1      24.553  40.642  47.415  1.00  0.00    +0.000 C 
ATOM      7  N1  UNL A   1      24.451  40.197  48.718  1.00  0.00    +0.000 N 
ATOM     15  C12 UNL A   1      25.685  39.691  49.071  1.00  0.00    +0.000 C 
ATOM     91  H3  UNL A   1      26.188  40.639  46.016  1.00  0.00    +0.000 H 
ATOM     92  H4  UNL A   1      23.793  41.084  46.873  1.00  0.00    +0.000 H 
BRANCH    7    8
ATOM      8  C6  UNL A   1      23.278  40.221  49.518  1.00  0.00    +0.000 C 
ATOM      9  C7  UNL A   1      23.333  40.736  50.823  1.00  0.00    +0.000 C 
ATOM     10  C8  UNL A   1      22.177  40.786  51.609  1.00  0.00    +0.000 C 
ATOM     11  C9  UNL A   1      20.969  40.303  51.110  1.00  0.00    +0.000 C 
ATOM     12  C10 UNL A   1      20.912  39.780  49.820  1.00  0.00    +0.000 C 
ATOM     13  C11 UNL A   1      22.057  39.751  49.026  1.00  0.00    +0.000 C 
ATOM     14  F1  UNL A   1      21.951  39.199  47.809  1.00  0.00    +0.000 F 
ATOM     93  H5  UNL A   1      24.229  41.078  51.204  1.00  0.00    +0.000 H 
ATOM     94  H6  UNL A   1      22.220  41.182  52.561  1.00  0.00    +0.000 H 
ATOM     95  H7  UNL A   1      20.119  40.331  51.696  1.00  0.00    +0.000 H 
ATOM     96  H8  UNL A   1      20.020  39.414  49.452  1.00  0.00    +0.000 H 
ENDBRANCH    7    8
ENDBRANCH    3    4
ENDBRANCH    2    3
ENDBRANCH   16    2
ENDBRANCH   17   16
ENDBRANCH   18   17
ENDBRANCH   19   18
ENDBRANCH   20   19
ENDBRANCH   21   20
ENDBRANCH   22   21
ENDBRANCH   23   22
ENDBRANCH   24   23
ENDBRANCH   26   24
ENDBRANCH   30   29
BRANCH   34   35
ATOM     35  C28 UNL A   1      26.655  35.990  45.055  1.00  0.00    +0.000 C 
ATOM     36  C29 UNL A   1      27.770  36.769  44.713  1.00  0.00    +0.000 C 
ATOM     37  F2  UNL A   1      27.761  38.098  44.876  1.00  0.00    +0.000 F 
ATOM     38  C30 UNL A   1      28.966  36.182  44.284  1.00  0.00    +0.000 C 
ATOM     39  F3  UNL A   1      30.021  36.959  44.001  1.00  0.00    +0.000 F 
ATOM     40  C31 UNL A   1      29.093  34.804  44.215  1.00  0.00    +0.000 C 
ATOM     41  F4  UNL A   1      30.271  34.249  43.902  1.00  0.00    +0.000 F 
ATOM     42  C32 UNL A   1      28.005  34.008  44.507  1.00  0.00    +0.000 C 
ATOM     43  F5  UNL A   1      28.123  32.673  44.478  1.00  0.00    +0.000 F 
ATOM     44  C33 UNL A   1      26.798  34.591  44.890  1.00  0.00    +0.000 C 
ATOM     45  F6  UNL A   1      25.778  33.762  45.165  1.00  0.00    +0.000 F 
ENDBRANCH   34   35
BRANCH   51   52
ATOM     52  C39 UNL A   1      21.236  34.155  45.508  1.00  0.00    +0.000 C 
ATOM     53  C40 UNL A   1      20.673  33.082  44.798  1.00  0.00    +0.000 C 
ATOM     54  F7  UNL A   1      19.880  33.307  43.754  1.00  0.00    +0.000 F 
ATOM     55  C41 UNL A   1      20.903  31.752  45.142  1.00  0.00    +0.000 C 
ATOM     56  F8  UNL A   1      20.321  30.767  44.441  1.00  0.00    +0.000 F 
ATOM     57  C42 UNL A   1      21.729  31.452  46.207  1.00  0.00    +0.000 C 
ATOM     58  F9  UNL A   1      21.956  30.175  46.542  1.00  0.00    +0.000 F 
ATOM     59  C43 UNL A   1      22.307  32.483  46.930  1.00  0.00    +0.000 C 
ATOM     60  F10 UNL A   1      23.106  32.196  47.967  1.00  0.00    +0.000 F 
ATOM     61  C44 UNL A   1      22.061  33.817  46.589  1.00  0.00    +0.000 C 
ATOM     62  F11 UNL A   1      22.638  34.784  47.319  1.00  0.00    +0.000 F 
ENDBRANCH   51   52
BRANCH   66   67
ATOM     67  C48 UNL A   1      16.847  37.020  48.699  1.00  0.00    +0.000 C 
ATOM     68  C49 UNL A   1      16.466  38.006  49.655  1.00  0.00    +0.000 C 
ATOM     69  F12 UNL A   1      17.367  38.813  50.230  1.00  0.00    +0.000 F 
ATOM     70  C50 UNL A   1      15.148  38.218  50.068  1.00  0.00    +0.000 C 
ATOM     71  F13 UNL A   1      14.889  39.104  51.040  1.00  0.00    +0.000 F 
ATOM     72  C51 UNL A   1      14.124  37.507  49.491  1.00  0.00    +0.000 C 
ATOM     73  F14 UNL A   1      12.861  37.684  49.898  1.00  0.00    +0.000 F 
ATOM     74  C52 UNL A   1      14.425  36.627  48.470  1.00  0.00    +0.000 C 
ATOM     75  F15 UNL A   1      13.431  35.974  47.852  1.00  0.00    +0.000 F 
ATOM     76  C53 UNL A   1      15.756  36.398  48.075  1.00  0.00    +0.000 C 
ATOM     77  F16 UNL A   1      15.920  35.578  47.036  1.00  0.00    +0.000 F 
ENDBRANCH   66   67
TORSDOF 17
ENDMDL
MODEL 5
REMARK VINA RESULT:     -11.8     18.407     23.012
ROOT
ATOM     30  C24 UNL A   1      40.222  29.197  29.597  1.00  0.00    +0.000 C 
ATOM     31  C25 UNL A   1      39.020  30.137  29.455  1.00  0.00    +0.000 C 
ATOM     32  N4  UNL A   1      38.962  31.435  29.487  1.00  0.00    +0.000 N 
ATOM     33  C26 UNL A   1      37.601  31.794  29.416  1.00  0.00    +0.000 C 
ATOM     34  C27 UNL A   1      37.123  33.034  29.727  1.00  0.00    +0.000 C 
ATOM     46  C34 UNL A   1      38.178  33.927  30.063  1.00  0.00    +0.000 C 
ATOM     47  C35 UNL A   1      39.086  34.640  29.327  1.00  0.00    +0.000 C 
ATOM     48  C36 UNL A   1      40.185  34.834  30.196  1.00  0.00    +0.000 C 
ATOM     49  C37 UNL A   1      39.888  34.261  31.435  1.00  0.00    +0.000 C 
ATOM     50  N5  UNL A   1      38.540  33.996  31.384  1.00  0.00    +0.000 N 
ATOM     51  C38 UNL A   1      40.631  33.733  32.561  1.00  0.00    +0.000 C 
ATOM     63  C45 UNL A   1      41.984  33.725  32.471  1.00  0.00    +0.000 C 
ATOM     64  N6  UNL A   1      42.690  32.616  32.882  1.00  0.00    +0.000 N 
ATOM     65  C46 UNL A   1      43.542  32.443  31.913  1.00  0.00    +0.000 C 
ATOM     66  C47 UNL A   1      44.296  31.198  31.663  1.00  0.00    +0.000 C 
ATOM     78  C54 UNL A   1      43.390  30.301  31.160  1.00  0.00    +0.000 C 
ATOM     79  C55 UNL A   1      43.611  28.916  30.797  1.00  0.00    +0.000 C 
ATOM     80  C56 UNL A   1      42.498  28.400  30.246  1.00  0.00    +0.000 C 
ATOM     81  C57 UNL A   1      41.434  29.414  30.180  1.00  0.00    +0.000 C 
ATOM     82  N7  UNL A   1      42.027  30.491  30.813  1.00  0.00    +0.000 N 
ATOM     83  C58 UNL A   1      43.685  33.560  30.972  1.00  0.00    +0.000 C 
ATOM     84  C59 UNL A   1      42.807  34.406  31.503  1.00  0.00    +0.000 C 
ATOM     85  C60 UNL A   1      36.876  30.595  29.118  1.00  0.00    +0.000 C 
ATOM     86  C61 UNL A   1      37.687  29.539  29.181  1.00  0.00    +0.000 C 
ATOM    114  H26 UNL A   1      38.990  34.965  28.353  1.00  0.00    +0.000 H 
ATOM    115  H27 UNL A   1      41.063  35.319  29.955  1.00  0.00    +0.000 H 
ATOM    116  H28 UNL A   1      37.942  33.878  32.157  1.00  0.00    +0.000 H 
ATOM    117  H29 UNL A   1      44.493  28.400  30.941  1.00  0.00    +0.000 H 
ATOM    118  H30 UNL A   1      42.402  27.427  29.915  1.00  0.00    +0.000 H 
ATOM    119  H31 UNL A   1      41.542  31.326  31.007  1.00  0.00    +0.000 H 
ATOM    120  H32 UNL A   1      44.290  33.660  30.142  1.00  0.00    +0.000 H 
ATOM    121  H33 UNL A   1      42.726  35.405  31.256  1.00  0.00    +0.000 H 
ATOM    122  H34 UNL A   1      35.871  30.555  28.889  1.00  0.00    +0.000 H 
ATOM    123  H35 UNL A   1      37.446  28.542  29.065  1.00  0.00    +0.000 H 
ENDROOT
BRANCH   30   29
ATOM    124  H36 UNL A   1      39.129  26.958  30.676  1.00  0.00    +0.000 H 
ATOM     29  C23 UNL A   1      40.000  27.869  28.973  1.00  0.00    +0.000 C 
ATOM    112  H24 UNL A   1      40.249  26.390  25.980  1.00  0.00    +0.000 H 
ATOM    113  H25 UNL A   1      40.867  28.433  27.128  1.00  0.00    +0.000 H 
ATOM     87  C62 UNL A   1      39.355  26.840  29.676  1.00  0.00    +0.000 C 
ATOM     88  C63 UNL A   1      39.018  25.658  29.017  1.00  0.00    +0.000 C 
ATOM     26  C20 UNL A   1      39.297  25.516  27.654  1.00  0.00    +0.000 C 
ATOM     27  C21 UNL A   1      39.996  26.520  26.972  1.00  0.00    +0.000 C 
ATOM     28  C22 UNL A   1      40.349  27.694  27.629  1.00  0.00    +0.000 C 
ATOM    125  H37 UNL A   1      38.563  24.889  29.534  1.00  0.00    +0.000 H 
BRANCH   26   24
ATOM     25  O2  UNL A   1      39.751  23.377  26.827  1.00  0.00    +0.000 O 
ATOM     24  C19 UNL A   1      38.948  24.294  26.895  1.00  0.00    +0.000 C 
BRANCH   24   23
ATOM    111  H23 UNL A   1      36.995  24.695  26.619  1.00  0.00    +0.000 H 
ATOM     23  N3  UNL A   1      37.744  24.183  26.238  1.00  0.00    +0.000 N 
BRANCH   23   22
ATOM    110  H22 UNL A   1      37.936  22.454  25.133  1.00  0.00    +0.000 H 
ATOM    109  H21 UNL A   1      37.786  23.930  24.186  1.00  0.00    +0.000 H 
ATOM     22  C18 UNL A   1      37.443  23.400  25.050  1.00  0.00    +0.000 C 
BRANCH   22   21
ATOM    107  H19 UNL A   1      35.725  22.920  23.897  1.00  0.00    +0.000 H 
ATOM    108  H20 UNL A   1      35.700  22.352  25.587  1.00  0.00    +0.000 H 
ATOM     21  C17 UNL A   1      35.939  23.153  24.920  1.00  0.00    +0.000 C 
BRANCH   21   20
ATOM    105  H17 UNL A   1      34.283  23.979  25.965  1.00  0.00    +0.000 H 
ATOM    106  H18 UNL A   1      35.720  25.037  25.822  1.00  0.00    +0.000 H 
ATOM     20  C16 UNL A   1      35.065  24.345  25.334  1.00  0.00    +0.000 C 
BRANCH   20   19
ATOM     19  C15 UNL A   1      34.421  25.113  24.176  1.00  0.00    +0.000 C 
ATOM    103  H15 UNL A   1      35.185  25.687  23.695  1.00  0.00    +0.000 H 
ATOM    104  H16 UNL A   1      33.976  24.375  23.543  1.00  0.00    +0.000 H 
BRANCH   19   18
ATOM     18  C14 UNL A   1      33.289  26.070  24.573  1.00  0.00    +0.000 C 
ATOM    101  H13 UNL A   1      33.511  27.034  24.166  1.00  0.00    +0.000 H 
ATOM    102  H14 UNL A   1      32.387  25.643  24.187  1.00  0.00    +0.000 H 
BRANCH   18   17
ATOM     17  C13 UNL A   1      33.076  26.229  26.079  1.00  0.00    +0.000 C 
ATOM     99  H11 UNL A   1      33.887  25.762  26.597  1.00  0.00    +0.000 H 
ATOM    100  H12 UNL A   1      33.034  27.275  26.305  1.00  0.00    +0.000 H 
BRANCH   17   16
ATOM     98  H10 UNL A   1      31.058  26.202  26.682  1.00  0.00    +0.000 H 
ATOM     16  N2  UNL A   1      31.833  25.623  26.501  1.00  0.00    +0.000 N 
BRANCH   16    2
ATOM      1  O1  UNL A   1      32.348  23.600  27.465  1.00  0.00    +0.000 O 
ATOM      2  C1  UNL A   1      31.696  24.257  26.660  1.00  0.00    +0.000 C 
BRANCH    2    3
ATOM     89  H1  UNL A   1      30.233  24.416  25.137  1.00  0.00    +0.000 H 
ATOM     90  H2  UNL A   1      29.993  23.083  26.284  1.00  0.00    +0.000 H 
ATOM      3  C2  UNL A   1      30.699  23.634  25.698  1.00  0.00    +0.000 C 
BRANCH    3    4
ATOM     97  H9  UNL A   1      31.597  20.907  25.939  1.00  0.00    +0.000 H 
ATOM      4  C3  UNL A   1      31.326  22.670  24.739  1.00  0.00    +0.000 C 
ATOM      5  C4  UNL A   1      31.676  22.890  23.381  1.00  0.00    +0.000 C 
ATOM      6  C5  UNL A   1      32.307  21.758  22.921  1.00  0.00    +0.000 C 
ATOM      7  N1  UNL A   1      32.360  20.823  23.935  1.00  0.00    +0.000 N 
ATOM     15  C12 UNL A   1      31.737  21.380  25.033  1.00  0.00    +0.000 C 
ATOM     91  H3  UNL A   1      31.489  23.747  22.837  1.00  0.00    +0.000 H 
ATOM     92  H4  UNL A   1      32.683  21.628  21.968  1.00  0.00    +0.000 H 
BRANCH    7    8
ATOM      8  C6  UNL A   1      32.981  19.548  23.862  1.00  0.00    +0.000 C 
ATOM      9  C7  UNL A   1      32.414  18.539  23.069  1.00  0.00    +0.000 C 
ATOM     10  C8  UNL A   1      33.033  17.289  22.972  1.00  0.00    +0.000 C 
ATOM     11  C9  UNL A   1      34.204  17.030  23.682  1.00  0.00    +0.000 C 
ATOM     12  C10 UNL A   1      34.765  18.024  24.480  1.00  0.00    +0.000 C 
ATOM     13  C11 UNL A   1      34.163  19.279  24.559  1.00  0.00    +0.000 C 
ATOM     14  F1  UNL A   1      34.724  20.183  25.374  1.00  0.00    +0.000 F 
ATOM     93  H5  UNL A   1      31.537  18.719  22.556  1.00  0.00    +0.000 H 
ATOM     94  H6  UNL A   1      32.621  16.556  22.374  1.00  0.00    +0.000 H 
ATOM     95  H7  UNL A   1      34.654  16.102  23.617  1.00  0.00    +0.000 H 
ATOM     96  H8  UNL A   1      35.628  17.832  25.013  1.00  0.00    +0.000 H 
ENDBRANCH    7    8
ENDBRANCH    3    4
ENDBRANCH    2    3
ENDBRANCH   16    2
ENDBRANCH   17   16
ENDBRANCH   18   17
ENDBRANCH   19   18
ENDBRANCH   20   19
ENDBRANCH   21   20
ENDBRANCH   22   21
ENDBRANCH   23   22
ENDBRANCH   24   23
ENDBRANCH   26   24
ENDBRANCH   30   29
BRANCH   34   35
ATOM     35  C28 UNL A   1      35.716  33.510  29.965  1.00  0.00    +0.000 C 
ATOM     36  C29 UNL A   1      35.137  33.598  31.240  1.00  0.00    +0.000 C 
ATOM     37  F2  UNL A   1      35.713  33.020  32.302  1.00  0.00    +0.000 F 
ATOM     38  C30 UNL A   1      33.994  34.372  31.470  1.00  0.00    +0.000 C 
ATOM     39  F3  UNL A   1      33.493  34.460  32.710  1.00  0.00    +0.000 F 
ATOM     40  C31 UNL A   1      33.417  35.105  30.446  1.00  0.00    +0.000 C 
ATOM     41  F4  UNL A   1      32.386  35.922  30.696  1.00  0.00    +0.000 F 
ATOM     42  C32 UNL A   1      33.936  35.011  29.171  1.00  0.00    +0.000 C 
ATOM     43  F5  UNL A   1      33.410  35.740  28.177  1.00  0.00    +0.000 F 
ATOM     44  C33 UNL A   1      35.047  34.204  28.928  1.00  0.00    +0.000 C 
ATOM     45  F6  UNL A   1      35.507  34.159  27.667  1.00  0.00    +0.000 F 
ENDBRANCH   34   35
BRANCH   51   52
ATOM     52  C39 UNL A   1      40.098  32.768  33.597  1.00  0.00    +0.000 C 
ATOM     53  C40 UNL A   1      40.025  33.073  34.966  1.00  0.00    +0.000 C 
ATOM     54  F7  UNL A   1      40.547  34.204  35.433  1.00  0.00    +0.000 F 
ATOM     55  C41 UNL A   1      39.418  32.226  35.891  1.00  0.00    +0.000 C 
ATOM     56  F8  UNL A   1      39.396  32.560  37.191  1.00  0.00    +0.000 F 
ATOM     57  C42 UNL A   1      38.845  31.045  35.467  1.00  0.00    +0.000 C 
ATOM     58  F9  UNL A   1      38.258  30.227  36.351  1.00  0.00    +0.000 F 
ATOM     59  C43 UNL A   1      38.893  30.710  34.122  1.00  0.00    +0.000 C 
ATOM     60  F10 UNL A   1      38.340  29.562  33.707  1.00  0.00    +0.000 F 
ATOM     61  C44 UNL A   1      39.515  31.557  33.200  1.00  0.00    +0.000 C 
ATOM     62  F11 UNL A   1      39.543  31.192  31.909  1.00  0.00    +0.000 F 
ENDBRANCH   51   52
BRANCH   66   67
ATOM     67  C48 UNL A   1      45.794  31.231  31.908  1.00  0.00    +0.000 C 
ATOM     68  C49 UNL A   1      46.304  31.314  33.236  1.00  0.00    +0.000 C 
ATOM     69  F12 UNL A   1      45.514  31.150  34.304  1.00  0.00    +0.000 F 
ATOM     70  C50 UNL A   1      47.645  31.566  33.538  1.00  0.00    +0.000 C 
ATOM     71  F13 UNL A   1      48.022  31.720  34.815  1.00  0.00    +0.000 F 
ATOM     72  C51 UNL A   1      48.568  31.673  32.527  1.00  0.00    +0.000 C 
ATOM     73  F14 UNL A   1      49.850  31.940  32.804  1.00  0.00    +0.000 F 
ATOM     74  C52 UNL A   1      48.149  31.476  31.226  1.00  0.00    +0.000 C 
ATOM     75  F15 UNL A   1      49.050  31.512  30.234  1.00  0.00    +0.000 F 
ATOM     76  C53 UNL A   1      46.794  31.248  30.925  1.00  0.00    +0.000 C 
ATOM     77  F16 UNL A   1      46.518  31.006  29.642  1.00  0.00    +0.000 F 
ENDBRANCH   66   67
TORSDOF 17
ENDMDL
MODEL 6
REMARK VINA RESULT:     -11.8     21.262     24.991
ROOT
ATOM     30  C24 UNL A   1      40.888  27.750  29.024  1.00  0.00    +0.000 C 
ATOM     31  C25 UNL A   1      41.051  26.325  28.487  1.00  0.00    +0.000 C 
ATOM     32  N4  UNL A   1      41.818  25.358  28.893  1.00  0.00    +0.000 N 
ATOM     33  C26 UNL A   1      41.662  24.291  27.984  1.00  0.00    +0.000 C 
ATOM     34  C27 UNL A   1      42.517  23.231  27.900  1.00  0.00    +0.000 C 
ATOM     46  C34 UNL A   1      43.538  23.309  28.887  1.00  0.00    +0.000 C 
ATOM     47  C35 UNL A   1      43.585  23.031  30.227  1.00  0.00    +0.000 C 
ATOM     48  C36 UNL A   1      44.625  23.845  30.730  1.00  0.00    +0.000 C 
ATOM     49  C37 UNL A   1      45.193  24.560  29.673  1.00  0.00    +0.000 C 
ATOM     50  N5  UNL A   1      44.693  23.963  28.540  1.00  0.00    +0.000 N 
ATOM     51  C38 UNL A   1      45.934  25.792  29.508  1.00  0.00    +0.000 C 
ATOM     63  C45 UNL A   1      46.167  26.538  30.616  1.00  0.00    +0.000 C 
ATOM     64  N6  UNL A   1      46.003  27.905  30.569  1.00  0.00    +0.000 N 
ATOM     65  C46 UNL A   1      45.339  28.153  31.660  1.00  0.00    +0.000 C 
ATOM     66  C47 UNL A   1      44.592  29.397  31.930  1.00  0.00    +0.000 C 
ATOM     78  C54 UNL A   1      43.472  29.344  31.143  1.00  0.00    +0.000 C 
ATOM     79  C55 UNL A   1      42.433  30.345  30.998  1.00  0.00    +0.000 C 
ATOM     80  C56 UNL A   1      41.449  29.877  30.208  1.00  0.00    +0.000 C 
ATOM     81  C57 UNL A   1      41.745  28.505  29.768  1.00  0.00    +0.000 C 
ATOM     82  N7  UNL A   1      43.001  28.297  30.309  1.00  0.00    +0.000 N 
ATOM     83  C58 UNL A   1      45.286  27.065  32.645  1.00  0.00    +0.000 C 
ATOM     84  C59 UNL A   1      45.993  26.147  31.993  1.00  0.00    +0.000 C 
ATOM     85  C60 UNL A   1      40.567  24.640  27.128  1.00  0.00    +0.000 C 
ATOM     86  C61 UNL A   1      40.186  25.897  27.356  1.00  0.00    +0.000 C 
ATOM    114  H26 UNL A   1      42.990  22.372  30.754  1.00  0.00    +0.000 H 
ATOM    115  H27 UNL A   1      44.919  23.902  31.718  1.00  0.00    +0.000 H 
ATOM    116  H28 UNL A   1      45.092  23.998  27.641  1.00  0.00    +0.000 H 
ATOM    117  H29 UNL A   1      42.446  31.279  31.436  1.00  0.00    +0.000 H 
ATOM    118  H30 UNL A   1      40.603  30.407  29.947  1.00  0.00    +0.000 H 
ATOM    119  H31 UNL A   1      43.527  27.484  30.131  1.00  0.00    +0.000 H 
ATOM    120  H32 UNL A   1      44.833  27.026  33.572  1.00  0.00    +0.000 H 
ATOM    121  H33 UNL A   1      46.363  25.279  32.413  1.00  0.00    +0.000 H 
ATOM    122  H34 UNL A   1      40.136  24.008  26.435  1.00  0.00    +0.000 H 
ATOM    123  H35 UNL A   1      39.461  26.443  26.864  1.00  0.00    +0.000 H 
ENDROOT
BRANCH   30   29
ATOM    124  H36 UNL A   1      38.572  27.746  30.441  1.00  0.00    +0.000 H 
ATOM     29  C23 UNL A   1      39.578  28.358  28.681  1.00  0.00    +0.000 C 
ATOM    112  H24 UNL A   1      38.228  30.341  26.345  1.00  0.00    +0.000 H 
ATOM    113  H25 UNL A   1      40.245  29.077  26.807  1.00  0.00    +0.000 H 
ATOM     87  C62 UNL A   1      38.501  28.307  29.578  1.00  0.00    +0.000 C 
ATOM     88  C63 UNL A   1      37.335  29.020  29.300  1.00  0.00    +0.000 C 
ATOM     26  C20 UNL A   1      37.257  29.805  28.146  1.00  0.00    +0.000 C 
ATOM     27  C21 UNL A   1      38.311  29.804  27.223  1.00  0.00    +0.000 C 
ATOM     28  C22 UNL A   1      39.469  29.081  27.487  1.00  0.00    +0.000 C 
ATOM    125  H37 UNL A   1      36.531  28.969  29.945  1.00  0.00    +0.000 H 
BRANCH   26   24
ATOM     25  O2  UNL A   1      36.116  31.818  27.811  1.00  0.00    +0.000 O 
ATOM     24  C19 UNL A   1      36.055  30.599  27.805  1.00  0.00    +0.000 C 
BRANCH   24   23
ATOM    111  H23 UNL A   1      34.895  29.015  27.359  1.00  0.00    +0.000 H 
ATOM     23  N3  UNL A   1      34.859  29.987  27.508  1.00  0.00    +0.000 N 
BRANCH   23   22
ATOM    110  H22 UNL A   1      33.633  31.470  26.770  1.00  0.00    +0.000 H 
ATOM    109  H21 UNL A   1      33.194  30.867  28.364  1.00  0.00    +0.000 H 
ATOM     22  C18 UNL A   1      33.546  30.602  27.388  1.00  0.00    +0.000 C 
BRANCH   22   21
ATOM    107  H19 UNL A   1      31.577  29.844  27.149  1.00  0.00    +0.000 H 
ATOM    108  H20 UNL A   1      32.596  29.812  25.686  1.00  0.00    +0.000 H 
ATOM     21  C17 UNL A   1      32.546  29.643  26.742  1.00  0.00    +0.000 C 
BRANCH   21   20
ATOM    105  H17 UNL A   1      33.794  28.090  27.480  1.00  0.00    +0.000 H 
ATOM    106  H18 UNL A   1      32.036  27.759  27.518  1.00  0.00    +0.000 H 
ATOM     20  C16 UNL A   1      32.860  28.157  26.964  1.00  0.00    +0.000 C 
BRANCH   20   19
ATOM     19  C15 UNL A   1      32.962  27.316  25.688  1.00  0.00    +0.000 C 
ATOM    103  H15 UNL A   1      31.976  27.198  25.291  1.00  0.00    +0.000 H 
ATOM    104  H16 UNL A   1      33.626  27.845  25.037  1.00  0.00    +0.000 H 
BRANCH   19   18
ATOM     18  C14 UNL A   1      33.570  25.918  25.870  1.00  0.00    +0.000 C 
ATOM    101  H13 UNL A   1      33.970  25.606  24.929  1.00  0.00    +0.000 H 
ATOM    102  H14 UNL A   1      34.311  26.013  26.637  1.00  0.00    +0.000 H 
BRANCH   18   17
ATOM     17  C13 UNL A   1      32.593  24.846  26.350  1.00  0.00    +0.000 C 
ATOM     99  H11 UNL A   1      33.143  23.967  26.616  1.00  0.00    +0.000 H 
ATOM    100  H12 UNL A   1      32.059  25.229  27.195  1.00  0.00    +0.000 H 
BRANCH   17   16
ATOM     98  H10 UNL A   1      31.843  23.776  24.698  1.00  0.00    +0.000 H 
ATOM     16  N2  UNL A   1      31.634  24.509  25.321  1.00  0.00    +0.000 N 
BRANCH   16    2
ATOM      1  O1  UNL A   1      29.745  25.535  26.132  1.00  0.00    +0.000 O 
ATOM      2  C1  UNL A   1      30.435  25.179  25.182  1.00  0.00    +0.000 C 
BRANCH    2    3
ATOM     89  H1  UNL A   1      28.971  25.187  23.652  1.00  0.00    +0.000 H 
ATOM     90  H2  UNL A   1      30.603  24.714  23.140  1.00  0.00    +0.000 H 
ATOM      3  C2  UNL A   1      30.019  25.383  23.736  1.00  0.00    +0.000 C 
BRANCH    3    4
ATOM     97  H9  UNL A   1      28.511  27.837  23.814  1.00  0.00    +0.000 H 
ATOM      4  C3  UNL A   1      30.284  26.769  23.234  1.00  0.00    +0.000 C 
ATOM      5  C4  UNL A   1      31.421  27.241  22.526  1.00  0.00    +0.000 C 
ATOM      6  C5  UNL A   1      31.191  28.554  22.189  1.00  0.00    +0.000 C 
ATOM      7  N1  UNL A   1      29.955  28.937  22.669  1.00  0.00    +0.000 N 
ATOM     15  C12 UNL A   1      29.420  27.847  23.326  1.00  0.00    +0.000 C 
ATOM     91  H3  UNL A   1      32.268  26.694  22.304  1.00  0.00    +0.000 H 
ATOM     92  H4  UNL A   1      31.841  29.159  21.661  1.00  0.00    +0.000 H 
BRANCH    7    8
ATOM      8  C6  UNL A   1      29.341  30.202  22.477  1.00  0.00    +0.000 C 
ATOM      9  C7  UNL A   1      28.713  30.496  21.256  1.00  0.00    +0.000 C 
ATOM     10  C8  UNL A   1      28.084  31.731  21.067  1.00  0.00    +0.000 C 
ATOM     11  C9  UNL A   1      28.098  32.686  22.081  1.00  0.00    +0.000 C 
ATOM     12  C10 UNL A   1      28.730  32.405  23.290  1.00  0.00    +0.000 C 
ATOM     13  C11 UNL A   1      29.335  31.166  23.490  1.00  0.00    +0.000 C 
ATOM     14  F1  UNL A   1      29.963  30.966  24.658  1.00  0.00    +0.000 F 
ATOM     93  H5  UNL A   1      28.716  29.799  20.495  1.00  0.00    +0.000 H 
ATOM     94  H6  UNL A   1      27.610  31.934  20.174  1.00  0.00    +0.000 H 
ATOM     95  H7  UNL A   1      27.642  33.601  21.935  1.00  0.00    +0.000 H 
ATOM     96  H8  UNL A   1      28.748  33.114  24.040  1.00  0.00    +0.000 H 
ENDBRANCH    7    8
ENDBRANCH    3    4
ENDBRANCH    2    3
ENDBRANCH   16    2
ENDBRANCH   17   16
ENDBRANCH   18   17
ENDBRANCH   19   18
ENDBRANCH   20   19
ENDBRANCH   21   20
ENDBRANCH   22   21
ENDBRANCH   23   22
ENDBRANCH   24   23
ENDBRANCH   26   24
ENDBRANCH   30   29
BRANCH   34   35
ATOM     35  C28 UNL A   1      42.660  22.170  26.843  1.00  0.00    +0.000 C 
ATOM     36  C29 UNL A   1      43.617  22.226  25.819  1.00  0.00    +0.000 C 
ATOM     37  F2  UNL A   1      44.293  23.353  25.566  1.00  0.00    +0.000 F 
ATOM     38  C30 UNL A   1      43.973  21.085  25.090  1.00  0.00    +0.000 C 
ATOM     39  F3  UNL A   1      44.918  21.171  24.145  1.00  0.00    +0.000 F 
ATOM     40  C31 UNL A   1      43.409  19.853  25.384  1.00  0.00    +0.000 C 
ATOM     41  F4  UNL A   1      43.829  18.750  24.752  1.00  0.00    +0.000 F 
ATOM     42  C32 UNL A   1      42.436  19.769  26.358  1.00  0.00    +0.000 C 
ATOM     43  F5  UNL A   1      41.907  18.578  26.676  1.00  0.00    +0.000 F 
ATOM     44  C33 UNL A   1      42.046  20.911  27.055  1.00  0.00    +0.000 C 
ATOM     45  F6  UNL A   1      41.098  20.762  27.993  1.00  0.00    +0.000 F 
ENDBRANCH   34   35
BRANCH   51   52
ATOM     52  C39 UNL A   1      46.061  26.582  28.223  1.00  0.00    +0.000 C 
ATOM     53  C40 UNL A   1      44.958  27.120  27.540  1.00  0.00    +0.000 C 
ATOM     54  F7  UNL A   1      43.719  26.845  27.939  1.00  0.00    +0.000 F 
ATOM     55  C41 UNL A   1      45.096  27.949  26.429  1.00  0.00    +0.000 C 
ATOM     56  F8  UNL A   1      44.005  28.417  25.803  1.00  0.00    +0.000 F 
ATOM     57  C42 UNL A   1      46.356  28.284  25.975  1.00  0.00    +0.000 C 
ATOM     58  F9  UNL A   1      46.495  29.082  24.909  1.00  0.00    +0.000 F 
ATOM     59  C43 UNL A   1      47.469  27.776  26.625  1.00  0.00    +0.000 C 
ATOM     60  F10 UNL A   1      48.694  28.095  26.185  1.00  0.00    +0.000 F 
ATOM     61  C44 UNL A   1      47.325  26.933  27.731  1.00  0.00    +0.000 C 
ATOM     62  F11 UNL A   1      48.430  26.460  28.328  1.00  0.00    +0.000 F 
ENDBRANCH   51   52
BRANCH   66   67
ATOM     67  C48 UNL A   1      45.142  30.322  33.002  1.00  0.00    +0.000 C 
ATOM     68  C49 UNL A   1      44.440  30.497  34.229  1.00  0.00    +0.000 C 
ATOM     69  F12 UNL A   1      43.412  29.710  34.570  1.00  0.00    +0.000 F 
ATOM     70  C50 UNL A   1      44.756  31.481  35.170  1.00  0.00    +0.000 C 
ATOM     71  F13 UNL A   1      43.985  31.635  36.256  1.00  0.00    +0.000 F 
ATOM     72  C51 UNL A   1      45.841  32.299  34.971  1.00  0.00    +0.000 C 
ATOM     73  F14 UNL A   1      46.136  33.262  35.853  1.00  0.00    +0.000 F 
ATOM     74  C52 UNL A   1      46.630  32.090  33.858  1.00  0.00    +0.000 C 
ATOM     75  F15 UNL A   1      47.730  32.835  33.683  1.00  0.00    +0.000 F 
ATOM     76  C53 UNL A   1      46.295  31.114  32.901  1.00  0.00    +0.000 C 
ATOM     77  F16 UNL A   1      47.166  30.957  31.903  1.00  0.00    +0.000 F 
ENDBRANCH   66   67
TORSDOF 17
ENDMDL
MODEL 7
REMARK VINA RESULT:     -11.7     42.498     46.572
ROOT
ATOM     30  C24 UNL A   1      53.547  19.092  11.624  1.00  0.00    +0.000 C 
ATOM     31  C25 UNL A   1      54.811  18.227  11.582  1.00  0.00    +0.000 C 
ATOM     32  N4  UNL A   1      55.611  17.863  12.540  1.00  0.00    +0.000 N 
ATOM     33  C26 UNL A   1      56.681  17.162  11.948  1.00  0.00    +0.000 C 
ATOM     34  C27 UNL A   1      57.859  16.893  12.581  1.00  0.00    +0.000 C 
ATOM     46  C34 UNL A   1      57.838  17.348  13.929  1.00  0.00    +0.000 C 
ATOM     47  C35 UNL A   1      57.293  16.861  15.086  1.00  0.00    +0.000 C 
ATOM     48  C36 UNL A   1      57.100  17.998  15.903  1.00  0.00    +0.000 C 
ATOM     49  C37 UNL A   1      57.567  19.127  15.226  1.00  0.00    +0.000 C 
ATOM     50  N5  UNL A   1      58.280  18.626  14.162  1.00  0.00    +0.000 N 
ATOM     51  C38 UNL A   1      57.320  20.553  15.252  1.00  0.00    +0.000 C 
ATOM     63  C45 UNL A   1      56.379  21.011  16.115  1.00  0.00    +0.000 C 
ATOM     64  N6  UNL A   1      55.474  21.963  15.700  1.00  0.00    +0.000 N 
ATOM     65  C46 UNL A   1      54.344  21.502  16.149  1.00  0.00    +0.000 C 
ATOM     66  C47 UNL A   1      53.011  21.935  15.686  1.00  0.00    +0.000 C 
ATOM     78  C54 UNL A   1      52.849  21.393  14.438  1.00  0.00    +0.000 C 
ATOM     79  C55 UNL A   1      51.731  21.557  13.530  1.00  0.00    +0.000 C 
ATOM     80  C56 UNL A   1      51.903  20.783  12.443  1.00  0.00    +0.000 C 
ATOM     81  C57 UNL A   1      53.155  20.018  12.543  1.00  0.00    +0.000 C 
ATOM     82  N7  UNL A   1      53.688  20.499  13.725  1.00  0.00    +0.000 N 
ATOM     83  C58 UNL A   1      54.435  20.418  17.135  1.00  0.00    +0.000 C 
ATOM     84  C59 UNL A   1      55.758  20.295  17.202  1.00  0.00    +0.000 C 
ATOM     85  C60 UNL A   1      56.326  16.958  10.574  1.00  0.00    +0.000 C 
ATOM     86  C61 UNL A   1      55.214  17.632  10.281  1.00  0.00    +0.000 C 
ATOM    114  H26 UNL A   1      57.071  15.879  15.312  1.00  0.00    +0.000 H 
ATOM    115  H27 UNL A   1      56.683  17.995  16.847  1.00  0.00    +0.000 H 
ATOM    116  H28 UNL A   1      58.981  19.099  13.659  1.00  0.00    +0.000 H 
ATOM    117  H29 UNL A   1      50.923  22.177  13.693  1.00  0.00    +0.000 H 
ATOM    118  H30 UNL A   1      51.246  20.732  11.648  1.00  0.00    +0.000 H 
ATOM    119  H31 UNL A   1      54.582  20.239  14.048  1.00  0.00    +0.000 H 
ATOM    120  H32 UNL A   1      53.692  19.902  17.632  1.00  0.00    +0.000 H 
ATOM    121  H33 UNL A   1      56.266  19.763  17.927  1.00  0.00    +0.000 H 
ATOM    122  H34 UNL A   1      56.855  16.373   9.909  1.00  0.00    +0.000 H 
ATOM    123  H35 UNL A   1      54.744  17.720   9.366  1.00  0.00    +0.000 H 
ENDROOT
BRANCH   30   29
ATOM    124  H36 UNL A   1      53.250  20.488   9.314  1.00  0.00    +0.000 H 
ATOM     29  C23 UNL A   1      52.628  18.837  10.487  1.00  0.00    +0.000 C 
ATOM    112  H24 UNL A   1      50.445  16.521   9.449  1.00  0.00    +0.000 H 
ATOM    113  H25 UNL A   1      51.738  17.151  11.401  1.00  0.00    +0.000 H 
ATOM     87  C62 UNL A   1      52.664  19.640   9.336  1.00  0.00    +0.000 C 
ATOM     88  C63 UNL A   1      51.904  19.285   8.222  1.00  0.00    +0.000 C 
ATOM     26  C20 UNL A   1      51.136  18.116   8.246  1.00  0.00    +0.000 C 
ATOM     27  C21 UNL A   1      51.056  17.352   9.417  1.00  0.00    +0.000 C 
ATOM     28  C22 UNL A   1      51.798  17.711  10.537  1.00  0.00    +0.000 C 
ATOM    125  H37 UNL A   1      51.908  19.883   7.381  1.00  0.00    +0.000 H 
BRANCH   26   24
ATOM     25  O2  UNL A   1      50.634  16.661   6.485  1.00  0.00    +0.000 O 
ATOM     24  C19 UNL A   1      50.324  17.677   7.089  1.00  0.00    +0.000 C 
BRANCH   24   23
ATOM    111  H23 UNL A   1      48.466  18.430   7.271  1.00  0.00    +0.000 H 
ATOM     23  N3  UNL A   1      49.239  18.407   6.662  1.00  0.00    +0.000 N 
BRANCH   23   22
ATOM    110  H22 UNL A   1      48.483  18.579   4.753  1.00  0.00    +0.000 H 
ATOM    109  H21 UNL A   1      50.064  19.314   4.996  1.00  0.00    +0.000 H 
ATOM     22  C18 UNL A   1      49.094  19.150   5.420  1.00  0.00    +0.000 C 
BRANCH   22   21
ATOM    107  H19 UNL A   1      48.370  20.667   6.717  1.00  0.00    +0.000 H 
ATOM    108  H20 UNL A   1      49.012  21.234   5.153  1.00  0.00    +0.000 H 
ATOM     21  C17 UNL A   1      48.420  20.501   5.661  1.00  0.00    +0.000 C 
BRANCH   21   20
ATOM    105  H17 UNL A   1      46.349  20.923   5.877  1.00  0.00    +0.000 H 
ATOM    106  H18 UNL A   1      47.059  21.309   4.280  1.00  0.00    +0.000 H 
ATOM     20  C16 UNL A   1      47.000  20.610   5.089  1.00  0.00    +0.000 C 
BRANCH   20   19
ATOM     19  C15 UNL A   1      46.437  19.316   4.493  1.00  0.00    +0.000 C 
ATOM    103  H15 UNL A   1      47.239  18.798   4.012  1.00  0.00    +0.000 H 
ATOM    104  H16 UNL A   1      46.008  18.777   5.311  1.00  0.00    +0.000 H 
BRANCH   19   18
ATOM     18  C14 UNL A   1      45.310  19.502   3.468  1.00  0.00    +0.000 C 
ATOM    101  H13 UNL A   1      45.748  19.515   2.492  1.00  0.00    +0.000 H 
ATOM    102  H14 UNL A   1      44.631  18.689   3.619  1.00  0.00    +0.000 H 
BRANCH   18   17
ATOM     17  C13 UNL A   1      44.489  20.781   3.635  1.00  0.00    +0.000 C 
ATOM     99  H11 UNL A   1      43.675  20.588   4.302  1.00  0.00    +0.000 H 
ATOM    100  H12 UNL A   1      45.129  21.543   4.030  1.00  0.00    +0.000 H 
BRANCH   17   16
ATOM     98  H10 UNL A   1      44.018  22.197   2.149  1.00  0.00    +0.000 H 
ATOM     16  N2  UNL A   1      43.963  21.239   2.368  1.00  0.00    +0.000 N 
BRANCH   16    2
ATOM      1  O1  UNL A   1      43.934  20.032   0.413  1.00  0.00    +0.000 O 
ATOM      2  C1  UNL A   1      43.387  20.378   1.455  1.00  0.00    +0.000 C 
BRANCH    2    3
ATOM     89  H1  UNL A   1      41.717  20.418   2.757  1.00  0.00    +0.000 H 
ATOM     90  H2  UNL A   1      41.988  18.878   1.917  1.00  0.00    +0.000 H 
ATOM      3  C2  UNL A   1      41.981  19.945   1.835  1.00  0.00    +0.000 C 
BRANCH    3    4
ATOM     97  H9  UNL A   1      39.745  21.761   1.823  1.00  0.00    +0.000 H 
ATOM      4  C3  UNL A   1      40.954  20.304   0.806  1.00  0.00    +0.000 C 
ATOM      5  C4  UNL A   1      40.810  19.781  -0.506  1.00  0.00    +0.000 C 
ATOM      6  C5  UNL A   1      39.677  20.332  -1.056  1.00  0.00    +0.000 C 
ATOM      7  N1  UNL A   1      39.103  21.196  -0.145  1.00  0.00    +0.000 N 
ATOM     15  C12 UNL A   1      39.904  21.190   0.979  1.00  0.00    +0.000 C 
ATOM     91  H3  UNL A   1      41.443  19.106  -0.964  1.00  0.00    +0.000 H 
ATOM     92  H4  UNL A   1      39.312  20.132  -2.001  1.00  0.00    +0.000 H 
BRANCH    7    8
ATOM      8  C6  UNL A   1      37.893  21.916  -0.326  1.00  0.00    +0.000 C 
ATOM      9  C7  UNL A   1      37.882  23.079  -1.111  1.00  0.00    +0.000 C 
ATOM     10  C8  UNL A   1      36.689  23.780  -1.314  1.00  0.00    +0.000 C 
ATOM     11  C9  UNL A   1      35.508  23.340  -0.719  1.00  0.00    +0.000 C 
ATOM     12  C10 UNL A   1      35.515  22.193   0.070  1.00  0.00    +0.000 C 
ATOM     13  C11 UNL A   1      36.698  21.479   0.255  1.00  0.00    +0.000 C 
ATOM     14  F1  UNL A   1      36.654  20.406   1.058  1.00  0.00    +0.000 F 
ATOM     93  H5  UNL A   1      38.758  23.420  -1.538  1.00  0.00    +0.000 H 
ATOM     94  H6  UNL A   1      36.683  24.625  -1.907  1.00  0.00    +0.000 H 
ATOM     95  H7  UNL A   1      34.630  23.865  -0.863  1.00  0.00    +0.000 H 
ATOM     96  H8  UNL A   1      34.643  21.870   0.519  1.00  0.00    +0.000 H 
ENDBRANCH    7    8
ENDBRANCH    3    4
ENDBRANCH    2    3
ENDBRANCH   16    2
ENDBRANCH   17   16
ENDBRANCH   18   17
ENDBRANCH   19   18
ENDBRANCH   20   19
ENDBRANCH   21   20
ENDBRANCH   22   21
ENDBRANCH   23   22
ENDBRANCH   24   23
ENDBRANCH   26   24
ENDBRANCH   30   29
BRANCH   34   35
ATOM     35  C28 UNL A   1      59.177  16.411  12.037  1.00  0.00    +0.000 C 
ATOM     36  C29 UNL A   1      60.078  17.240  11.353  1.00  0.00    +0.000 C 
ATOM     37  F2  UNL A   1      59.708  18.451  10.916  1.00  0.00    +0.000 F 
ATOM     38  C30 UNL A   1      61.420  16.879  11.188  1.00  0.00    +0.000 C 
ATOM     39  F3  UNL A   1      62.258  17.716  10.561  1.00  0.00    +0.000 F 
ATOM     40  C31 UNL A   1      61.907  15.699  11.727  1.00  0.00    +0.000 C 
ATOM     41  F4  UNL A   1      63.213  15.410  11.653  1.00  0.00    +0.000 F 
ATOM     42  C32 UNL A   1      61.040  14.841  12.372  1.00  0.00    +0.000 C 
ATOM     43  F5  UNL A   1      61.503  13.713  12.928  1.00  0.00    +0.000 F 
ATOM     44  C33 UNL A   1      59.693  15.176  12.498  1.00  0.00    +0.000 C 
ATOM     45  F6  UNL A   1      58.902  14.301  13.140  1.00  0.00    +0.000 F 
ENDBRANCH   34   35
BRANCH   51   52
ATOM     52  C39 UNL A   1      57.618  21.523  14.130  1.00  0.00    +0.000 C 
ATOM     53  C40 UNL A   1      57.037  21.426  12.855  1.00  0.00    +0.000 C 
ATOM     54  F7  UNL A   1      56.275  20.381  12.540  1.00  0.00    +0.000 F 
ATOM     55  C41 UNL A   1      57.222  22.394  11.871  1.00  0.00    +0.000 C 
ATOM     56  F8  UNL A   1      56.658  22.238  10.663  1.00  0.00    +0.000 F 
ATOM     57  C42 UNL A   1      57.988  23.509  12.142  1.00  0.00    +0.000 C 
ATOM     58  F9  UNL A   1      58.169  24.445  11.200  1.00  0.00    +0.000 F 
ATOM     59  C43 UNL A   1      58.576  23.643  13.390  1.00  0.00    +0.000 C 
ATOM     60  F10 UNL A   1      59.324  24.723  13.655  1.00  0.00    +0.000 F 
ATOM     61  C44 UNL A   1      58.399  22.662  14.370  1.00  0.00    +0.000 C 
ATOM     62  F11 UNL A   1      58.990  22.830  15.562  1.00  0.00    +0.000 F 
ENDBRANCH   51   52
BRANCH   66   67
ATOM     67  C48 UNL A   1      52.159  22.730  16.661  1.00  0.00    +0.000 C 
ATOM     68  C49 UNL A   1      52.018  24.139  16.507  1.00  0.00    +0.000 C 
ATOM     69  F12 UNL A   1      52.438  24.772  15.404  1.00  0.00    +0.000 F 
ATOM     70  C50 UNL A   1      51.440  24.970  17.471  1.00  0.00    +0.000 C 
ATOM     71  F13 UNL A   1      51.431  26.298  17.285  1.00  0.00    +0.000 F 
ATOM     72  C51 UNL A   1      50.900  24.429  18.611  1.00  0.00    +0.000 C 
ATOM     73  F14 UNL A   1      50.367  25.218  19.551  1.00  0.00    +0.000 F 
ATOM     74  C52 UNL A   1      50.898  23.055  18.752  1.00  0.00    +0.000 C 
ATOM     75  F15 UNL A   1      50.316  22.506  19.828  1.00  0.00    +0.000 F 
ATOM     76  C53 UNL A   1      51.503  22.224  17.792  1.00  0.00    +0.000 C 
ATOM     77  F16 UNL A   1      51.381  20.912  18.001  1.00  0.00    +0.000 F 
ENDBRANCH   66   67
TORSDOF 17
ENDMDL
MODEL 8
REMARK VINA RESULT:     -11.7     21.282     24.944
ROOT
ATOM     30  C24 UNL A   1      40.850  27.974  29.213  1.00  0.00    +0.000 C 
ATOM     31  C25 UNL A   1      40.976  26.556  28.647  1.00  0.00    +0.000 C 
ATOM     32  N4  UNL A   1      41.701  25.555  29.048  1.00  0.00    +0.000 N 
ATOM     33  C26 UNL A   1      41.530  24.514  28.112  1.00  0.00    +0.000 C 
ATOM     34  C27 UNL A   1      42.350  23.428  28.022  1.00  0.00    +0.000 C 
ATOM     46  C34 UNL A   1      43.352  23.450  29.032  1.00  0.00    +0.000 C 
ATOM     47  C35 UNL A   1      43.360  23.141  30.366  1.00  0.00    +0.000 C 
ATOM     48  C36 UNL A   1      44.416  23.908  30.909  1.00  0.00    +0.000 C 
ATOM     49  C37 UNL A   1      45.031  24.626  29.880  1.00  0.00    +0.000 C 
ATOM     50  N5  UNL A   1      44.535  24.071  28.724  1.00  0.00    +0.000 N 
ATOM     51  C38 UNL A   1      45.816  25.836  29.758  1.00  0.00    +0.000 C 
ATOM     63  C45 UNL A   1      46.049  26.548  30.888  1.00  0.00    +0.000 C 
ATOM     64  N6  UNL A   1      45.932  27.922  30.867  1.00  0.00    +0.000 N 
ATOM     65  C46 UNL A   1      45.253  28.168  31.950  1.00  0.00    +0.000 C 
ATOM     66  C47 UNL A   1      44.542  29.431  32.232  1.00  0.00    +0.000 C 
ATOM     78  C54 UNL A   1      43.438  29.433  31.420  1.00  0.00    +0.000 C 
ATOM     79  C55 UNL A   1      42.437  30.471  31.276  1.00  0.00    +0.000 C 
ATOM     80  C56 UNL A   1      41.456  30.054  30.456  1.00  0.00    +0.000 C 
ATOM     81  C57 UNL A   1      41.715  28.683  29.991  1.00  0.00    +0.000 C 
ATOM     82  N7  UNL A   1      42.951  28.421  30.554  1.00  0.00    +0.000 N 
ATOM     83  C58 UNL A   1      45.142  27.062  32.909  1.00  0.00    +0.000 C 
ATOM     84  C59 UNL A   1      45.832  26.134  32.251  1.00  0.00    +0.000 C 
ATOM     85  C60 UNL A   1      40.466  24.918  27.241  1.00  0.00    +0.000 C 
ATOM     86  C61 UNL A   1      40.122  26.182  27.489  1.00  0.00    +0.000 C 
ATOM    114  H26 UNL A   1      42.733  22.491  30.865  1.00  0.00    +0.000 H 
ATOM    115  H27 UNL A   1      44.690  23.933  31.904  1.00  0.00    +0.000 H 
ATOM    116  H28 UNL A   1      44.955  24.113  27.834  1.00  0.00    +0.000 H 
ATOM    117  H29 UNL A   1      42.472  31.395  31.735  1.00  0.00    +0.000 H 
ATOM    118  H30 UNL A   1      40.634  30.618  30.189  1.00  0.00    +0.000 H 
ATOM    119  H31 UNL A   1      43.454  27.594  30.369  1.00  0.00    +0.000 H 
ATOM    120  H32 UNL A   1      44.669  27.017  33.825  1.00  0.00    +0.000 H 
ATOM    121  H33 UNL A   1      46.164  25.245  32.659  1.00  0.00    +0.000 H 
ATOM    122  H34 UNL A   1      40.029  24.317  26.525  1.00  0.00    +0.000 H 
ATOM    123  H35 UNL A   1      39.427  26.763  26.994  1.00  0.00    +0.000 H 
ENDROOT
BRANCH   30   29
ATOM    124  H36 UNL A   1      40.205  29.370  26.975  1.00  0.00    +0.000 H 
ATOM     29  C23 UNL A   1      39.569  28.633  28.856  1.00  0.00    +0.000 C 
ATOM    112  H24 UNL A   1      36.435  28.896  30.006  1.00  0.00    +0.000 H 
ATOM    113  H25 UNL A   1      38.627  28.104  30.675  1.00  0.00    +0.000 H 
ATOM     87  C62 UNL A   1      39.401  29.260  27.611  1.00  0.00    +0.000 C 
ATOM     88  C63 UNL A   1      38.143  29.731  27.238  1.00  0.00    +0.000 C 
ATOM     26  C20 UNL A   1      37.050  29.549  28.091  1.00  0.00    +0.000 C 
ATOM     27  C21 UNL A   1      37.234  28.979  29.357  1.00  0.00    +0.000 C 
ATOM     28  C22 UNL A   1      38.490  28.522  29.741  1.00  0.00    +0.000 C 
ATOM    125  H37 UNL A   1      38.018  30.213  26.334  1.00  0.00    +0.000 H 
BRANCH   26   24
ATOM     25  O2  UNL A   1      35.490  31.195  27.521  1.00  0.00    +0.000 O 
ATOM     24  C19 UNL A   1      35.686  30.010  27.744  1.00  0.00    +0.000 C 
BRANCH   24   23
ATOM    111  H23 UNL A   1      34.645  28.399  28.351  1.00  0.00    +0.000 H 
ATOM     23  N3  UNL A   1      34.628  29.132  27.695  1.00  0.00    +0.000 N 
BRANCH   23   22
ATOM    110  H22 UNL A   1      33.192  30.173  26.646  1.00  0.00    +0.000 H 
ATOM    109  H21 UNL A   1      32.690  28.588  27.224  1.00  0.00    +0.000 H 
ATOM     22  C18 UNL A   1      33.488  29.155  26.792  1.00  0.00    +0.000 C 
BRANCH   22   21
ATOM    107  H19 UNL A   1      34.784  28.969  25.121  1.00  0.00    +0.000 H 
ATOM    108  H20 UNL A   1      33.889  27.493  25.568  1.00  0.00    +0.000 H 
ATOM     21  C17 UNL A   1      33.849  28.554  25.433  1.00  0.00    +0.000 C 
BRANCH   21   20
ATOM    105  H17 UNL A   1      33.254  29.478  23.614  1.00  0.00    +0.000 H 
ATOM    106  H18 UNL A   1      32.559  27.859  23.929  1.00  0.00    +0.000 H 
ATOM     20  C16 UNL A   1      32.814  28.817  24.331  1.00  0.00    +0.000 C 
BRANCH   20   19
ATOM     19  C15 UNL A   1      31.499  29.441  24.808  1.00  0.00    +0.000 C 
ATOM    103  H15 UNL A   1      31.167  28.896  25.666  1.00  0.00    +0.000 H 
ATOM    104  H16 UNL A   1      31.716  30.469  25.010  1.00  0.00    +0.000 H 
BRANCH   19   18
ATOM     18  C14 UNL A   1      30.362  29.443  23.777  1.00  0.00    +0.000 C 
ATOM    101  H13 UNL A   1      29.447  29.646  24.293  1.00  0.00    +0.000 H 
ATOM    102  H14 UNL A   1      30.616  30.188  23.053  1.00  0.00    +0.000 H 
BRANCH   18   17
ATOM     17  C13 UNL A   1      30.190  28.136  23.003  1.00  0.00    +0.000 C 
ATOM     99  H11 UNL A   1      29.679  28.340  22.085  1.00  0.00    +0.000 H 
ATOM    100  H12 UNL A   1      31.160  27.726  22.814  1.00  0.00    +0.000 H 
BRANCH   17   16
ATOM     98  H10 UNL A   1      28.488  27.370  23.980  1.00  0.00    +0.000 H 
ATOM     16  N2  UNL A   1      29.427  27.170  23.763  1.00  0.00    +0.000 N 
BRANCH   16    2
ATOM      1  O1  UNL A   1      30.004  24.960  23.508  1.00  0.00    +0.000 O 
ATOM      2  C1  UNL A   1      29.971  25.976  24.195  1.00  0.00    +0.000 C 
BRANCH    2    3
ATOM     89  H1  UNL A   1      29.657  25.794  26.281  1.00  0.00    +0.000 H 
ATOM     90  H2  UNL A   1      30.862  27.004  25.797  1.00  0.00    +0.000 H 
ATOM      3  C2  UNL A   1      30.473  26.022  25.628  1.00  0.00    +0.000 C 
BRANCH    3    4
ATOM     97  H9  UNL A   1      33.160  25.762  24.621  1.00  0.00    +0.000 H 
ATOM      4  C3  UNL A   1      31.582  25.053  25.897  1.00  0.00    +0.000 C 
ATOM      5  C4  UNL A   1      31.571  23.930  26.766  1.00  0.00    +0.000 C 
ATOM      6  C5  UNL A   1      32.774  23.279  26.626  1.00  0.00    +0.000 C 
ATOM      7  N1  UNL A   1      33.554  23.956  25.710  1.00  0.00    +0.000 N 
ATOM     15  C12 UNL A   1      32.826  25.050  25.290  1.00  0.00    +0.000 C 
ATOM     91  H3  UNL A   1      30.797  23.652  27.390  1.00  0.00    +0.000 H 
ATOM     92  H4  UNL A   1      33.051  22.419  27.128  1.00  0.00    +0.000 H 
BRANCH    7    8
ATOM      8  C6  UNL A   1      34.842  23.563  25.260  1.00  0.00    +0.000 C 
ATOM      9  C7  UNL A   1      35.945  23.670  26.121  1.00  0.00    +0.000 C 
ATOM     10  C8  UNL A   1      37.213  23.263  25.695  1.00  0.00    +0.000 C 
ATOM     11  C9  UNL A   1      37.393  22.771  24.404  1.00  0.00    +0.000 C 
ATOM     12  C10 UNL A   1      36.304  22.673  23.541  1.00  0.00    +0.000 C 
ATOM     13  C11 UNL A   1      35.035  23.055  23.972  1.00  0.00    +0.000 C 
ATOM     14  F1  UNL A   1      34.032  22.978  23.086  1.00  0.00    +0.000 F 
ATOM     93  H5  UNL A   1      35.821  24.052  27.072  1.00  0.00    +0.000 H 
ATOM     94  H6  UNL A   1      38.017  23.327  26.338  1.00  0.00    +0.000 H 
ATOM     95  H7  UNL A   1      38.332  22.480  24.087  1.00  0.00    +0.000 H 
ATOM     96  H8  UNL A   1      36.436  22.316  22.581  1.00  0.00    +0.000 H 
ENDBRANCH    7    8
ENDBRANCH    3    4
ENDBRANCH    2    3
ENDBRANCH   16    2
ENDBRANCH   17   16
ENDBRANCH   18   17
ENDBRANCH   19   18
ENDBRANCH   20   19
ENDBRANCH   21   20
ENDBRANCH   22   21
ENDBRANCH   23   22
ENDBRANCH   24   23
ENDBRANCH   26   24
ENDBRANCH   30   29
BRANCH   34   35
ATOM     35  C28 UNL A   1      42.481  22.385  26.945  1.00  0.00    +0.000 C 
ATOM     36  C29 UNL A   1      43.405  22.474  25.894  1.00  0.00    +0.000 C 
ATOM     37  F2  UNL A   1      44.054  23.618  25.638  1.00  0.00    +0.000 F 
ATOM     38  C30 UNL A   1      43.759  21.351  25.137  1.00  0.00    +0.000 C 
ATOM     39  F3  UNL A   1      44.674  21.470  24.165  1.00  0.00    +0.000 F 
ATOM     40  C31 UNL A   1      43.227  20.105  25.427  1.00  0.00    +0.000 C 
ATOM     41  F4  UNL A   1      43.648  19.019  24.766  1.00  0.00    +0.000 F 
ATOM     42  C32 UNL A   1      42.286  19.988  26.429  1.00  0.00    +0.000 C 
ATOM     43  F5  UNL A   1      41.788  18.784  26.744  1.00  0.00    +0.000 F 
ATOM     44  C33 UNL A   1      41.896  21.113  27.155  1.00  0.00    +0.000 C 
ATOM     45  F6  UNL A   1      40.979  20.932  28.118  1.00  0.00    +0.000 F 
ENDBRANCH   34   35
BRANCH   51   52
ATOM     52  C39 UNL A   1      45.997  26.649  28.495  1.00  0.00    +0.000 C 
ATOM     53  C40 UNL A   1      44.929  27.254  27.811  1.00  0.00    +0.000 C 
ATOM     54  F7  UNL A   1      43.673  27.029  28.188  1.00  0.00    +0.000 F 
ATOM     55  C41 UNL A   1      45.121  28.101  26.722  1.00  0.00    +0.000 C 
ATOM     56  F8  UNL A   1      44.062  28.635  26.094  1.00  0.00    +0.000 F 
ATOM     57  C42 UNL A   1      46.401  28.387  26.292  1.00  0.00    +0.000 C 
ATOM     58  F9  UNL A   1      46.592  29.203  25.246  1.00  0.00    +0.000 F 
ATOM     59  C43 UNL A   1      47.481  27.812  26.943  1.00  0.00    +0.000 C 
ATOM     60  F10 UNL A   1      48.725  28.083  26.526  1.00  0.00    +0.000 F 
ATOM     61  C44 UNL A   1      47.283  26.951  28.027  1.00  0.00    +0.000 C 
ATOM     62  F11 UNL A   1      48.356  26.412  28.625  1.00  0.00    +0.000 F 
ENDBRANCH   51   52
BRANCH   66   67
ATOM     67  C48 UNL A   1      45.100  30.313  33.336  1.00  0.00    +0.000 C 
ATOM     68  C49 UNL A   1      44.428  30.407  34.588  1.00  0.00    +0.000 C 
ATOM     69  F12 UNL A   1      43.428  29.579  34.914  1.00  0.00    +0.000 F 
ATOM     70  C50 UNL A   1      44.746  31.350  35.570  1.00  0.00    +0.000 C 
ATOM     71  F13 UNL A   1      44.002  31.429  36.683  1.00  0.00    +0.000 F 
ATOM     72  C51 UNL A   1      45.806  32.203  35.386  1.00  0.00    +0.000 C 
ATOM     73  F14 UNL A   1      46.102  33.126  36.309  1.00  0.00    +0.000 F 
ATOM     74  C52 UNL A   1      46.569  32.070  34.243  1.00  0.00    +0.000 C 
ATOM     75  F15 UNL A   1      47.646  32.851  34.079  1.00  0.00    +0.000 F 
ATOM     76  C53 UNL A   1      46.231  31.137  33.246  1.00  0.00    +0.000 C 
ATOM     77  F16 UNL A   1      47.078  31.053  32.219  1.00  0.00    +0.000 F 
ENDBRANCH   66   67
TORSDOF 17
ENDMDL
MODEL 9
REMARK VINA RESULT:     -11.7     18.769     23.500
ROOT
ATOM     30  C24 UNL A   1      40.224  29.171  29.047  1.00  0.00    +0.000 C 
ATOM     31  C25 UNL A   1      38.973  30.032  29.250  1.00  0.00    +0.000 C 
ATOM     32  N4  UNL A   1      38.848  31.323  29.337  1.00  0.00    +0.000 N 
ATOM     33  C26 UNL A   1      37.496  31.593  29.631  1.00  0.00    +0.000 C 
ATOM     34  C27 UNL A   1      37.043  32.794  30.094  1.00  0.00    +0.000 C 
ATOM     46  C34 UNL A   1      38.094  33.749  30.173  1.00  0.00    +0.000 C 
ATOM     47  C35 UNL A   1      38.735  34.531  29.251  1.00  0.00    +0.000 C 
ATOM     48  C36 UNL A   1      40.008  34.784  29.812  1.00  0.00    +0.000 C 
ATOM     49  C37 UNL A   1      40.078  34.175  31.067  1.00  0.00    +0.000 C 
ATOM     50  N5  UNL A   1      38.782  33.823  31.358  1.00  0.00    +0.000 N 
ATOM     51  C38 UNL A   1      41.118  33.680  31.945  1.00  0.00    +0.000 C 
ATOM     63  C45 UNL A   1      42.399  33.763  31.509  1.00  0.00    +0.000 C 
ATOM     64  N6  UNL A   1      43.253  32.696  31.688  1.00  0.00    +0.000 N 
ATOM     65  C46 UNL A   1      43.832  32.593  30.528  1.00  0.00    +0.000 C 
ATOM     66  C47 UNL A   1      44.568  31.405  30.053  1.00  0.00    +0.000 C 
ATOM     78  C54 UNL A   1      43.618  30.458  29.773  1.00  0.00    +0.000 C 
ATOM     79  C55 UNL A   1      43.820  29.096  29.322  1.00  0.00    +0.000 C 
ATOM     80  C56 UNL A   1      42.634  28.516  29.061  1.00  0.00    +0.000 C 
ATOM     81  C57 UNL A   1      41.531  29.458  29.304  1.00  0.00    +0.000 C 
ATOM     82  N7  UNL A   1      42.203  30.563  29.795  1.00  0.00    +0.000 N 
ATOM     83  C58 UNL A   1      43.659  33.732  29.616  1.00  0.00    +0.000 C 
ATOM     84  C59 UNL A   1      42.900  34.510  30.382  1.00  0.00    +0.000 C 
ATOM     85  C60 UNL A   1      36.792  30.353  29.494  1.00  0.00    +0.000 C 
ATOM     86  C61 UNL A   1      37.653  29.351  29.311  1.00  0.00    +0.000 C 
ATOM    114  H26 UNL A   1      38.370  34.864  28.345  1.00  0.00    +0.000 H 
ATOM    115  H27 UNL A   1      40.763  35.330  29.367  1.00  0.00    +0.000 H 
ATOM    116  H28 UNL A   1      38.413  33.654  32.255  1.00  0.00    +0.000 H 
ATOM    117  H29 UNL A   1      44.738  28.636  29.217  1.00  0.00    +0.000 H 
ATOM    118  H30 UNL A   1      42.514  27.544  28.736  1.00  0.00    +0.000 H 
ATOM    119  H31 UNL A   1      41.736  31.361  30.134  1.00  0.00    +0.000 H 
ATOM    120  H32 UNL A   1      44.020  33.884  28.662  1.00  0.00    +0.000 H 
ATOM    121  H33 UNL A   1      42.699  35.505  30.196  1.00  0.00    +0.000 H 
ATOM    122  H34 UNL A   1      35.766  30.250  29.531  1.00  0.00    +0.000 H 
ATOM    123  H35 UNL A   1      37.450  28.343  29.231  1.00  0.00    +0.000 H 
ENDROOT
BRANCH   30   29
ATOM    124  H36 UNL A   1      40.600  28.295  26.505  1.00  0.00    +0.000 H 
ATOM     29  C23 UNL A   1      39.928  27.840  28.461  1.00  0.00    +0.000 C 
ATOM    112  H24 UNL A   1      38.917  24.800  29.433  1.00  0.00    +0.000 H 
ATOM    113  H25 UNL A   1      39.131  27.068  30.262  1.00  0.00    +0.000 H 
ATOM     87  C62 UNL A   1      40.255  27.549  27.128  1.00  0.00    +0.000 C 
ATOM     88  C63 UNL A   1      40.113  26.247  26.649  1.00  0.00    +0.000 C 
ATOM     26  C20 UNL A   1      39.675  25.233  27.507  1.00  0.00    +0.000 C 
ATOM     27  C21 UNL A   1      39.292  25.540  28.819  1.00  0.00    +0.000 C 
ATOM     28  C22 UNL A   1      39.416  26.841  29.296  1.00  0.00    +0.000 C 
ATOM    125  H37 UNL A   1      40.330  26.032  25.663  1.00  0.00    +0.000 H 
BRANCH   26   24
ATOM     25  O2  UNL A   1      40.090  22.938  27.676  1.00  0.00    +0.000 O 
ATOM     24  C19 UNL A   1      39.522  23.830  27.064  1.00  0.00    +0.000 C 
BRANCH   24   23
ATOM    111  H23 UNL A   1      38.922  24.068  25.158  1.00  0.00    +0.000 H 
ATOM     23  N3  UNL A   1      38.772  23.511  25.955  1.00  0.00    +0.000 N 
BRANCH   23   22
ATOM    110  H22 UNL A   1      37.199  22.414  26.710  1.00  0.00    +0.000 H 
ATOM    109  H21 UNL A   1      38.293  21.521  25.660  1.00  0.00    +0.000 H 
ATOM     22  C18 UNL A   1      37.786  22.451  25.817  1.00  0.00    +0.000 C 
BRANCH   22   21
ATOM    107  H19 UNL A   1      37.144  23.641  24.179  1.00  0.00    +0.000 H 
ATOM    108  H20 UNL A   1      36.953  21.880  23.972  1.00  0.00    +0.000 H 
ATOM     21  C17 UNL A   1      36.855  22.716  24.634  1.00  0.00    +0.000 C 
BRANCH   21   20
ATOM    105  H17 UNL A   1      34.799  22.394  24.203  1.00  0.00    +0.000 H 
ATOM    106  H18 UNL A   1      35.261  22.273  25.928  1.00  0.00    +0.000 H 
ATOM     20  C16 UNL A   1      35.369  22.808  25.007  1.00  0.00    +0.000 C 
BRANCH   20   19
ATOM     19  C15 UNL A   1      34.852  24.225  25.275  1.00  0.00    +0.000 C 
ATOM    103  H15 UNL A   1      33.965  24.146  25.868  1.00  0.00    +0.000 H 
ATOM    104  H16 UNL A   1      35.650  24.743  25.764  1.00  0.00    +0.000 H 
BRANCH   19   18
ATOM     18  C14 UNL A   1      34.516  25.048  24.024  1.00  0.00    +0.000 C 
ATOM    101  H13 UNL A   1      35.431  25.427  23.621  1.00  0.00    +0.000 H 
ATOM    102  H14 UNL A   1      34.001  24.386  23.360  1.00  0.00    +0.000 H 
BRANCH   18   17
ATOM     17  C13 UNL A   1      33.576  26.230  24.262  1.00  0.00    +0.000 C 
ATOM     99  H11 UNL A   1      33.774  26.643  25.229  1.00  0.00    +0.000 H 
ATOM    100  H12 UNL A   1      33.750  26.958  23.497  1.00  0.00    +0.000 H 
BRANCH   17   16
ATOM     98  H10 UNL A   1      31.637  25.888  25.007  1.00  0.00    +0.000 H 
ATOM     16  N2  UNL A   1      32.190  25.823  24.196  1.00  0.00    +0.000 N 
BRANCH   16    2
ATOM      1  O1  UNL A   1      31.833  25.827  21.925  1.00  0.00    +0.000 O 
ATOM      2  C1  UNL A   1      31.616  25.347  23.034  1.00  0.00    +0.000 C 
BRANCH    2    3
ATOM     89  H1  UNL A   1      30.247  23.898  22.318  1.00  0.00    +0.000 H 
ATOM     90  H2  UNL A   1      29.875  24.569  23.918  1.00  0.00    +0.000 H 
ATOM      3  C2  UNL A   1      30.640  24.206  23.264  1.00  0.00    +0.000 C 
BRANCH    3    4
ATOM     97  H9  UNL A   1      32.002  21.871  22.267  1.00  0.00    +0.000 H 
ATOM      4  C3  UNL A   1      31.264  23.018  23.928  1.00  0.00    +0.000 C 
ATOM      5  C4  UNL A   1      31.323  22.723  25.316  1.00  0.00    +0.000 C 
ATOM      6  C5  UNL A   1      31.908  21.486  25.458  1.00  0.00    +0.000 C 
ATOM      7  N1  UNL A   1      32.235  20.992  24.211  1.00  0.00    +0.000 N 
ATOM     15  C12 UNL A   1      31.860  21.946  23.286  1.00  0.00    +0.000 C 
ATOM     91  H3  UNL A   1      30.985  23.328  26.081  1.00  0.00    +0.000 H 
ATOM     92  H4  UNL A   1      32.077  21.003  26.355  1.00  0.00    +0.000 H 
BRANCH    7    8
ATOM      8  C6  UNL A   1      32.807  19.721  23.941  1.00  0.00    +0.000 C 
ATOM      9  C7  UNL A   1      32.222  18.880  22.982  1.00  0.00    +0.000 C 
ATOM     10  C8  UNL A   1      32.793  17.638  22.692  1.00  0.00    +0.000 C 
ATOM     11  C9  UNL A   1      33.934  17.216  23.371  1.00  0.00    +0.000 C 
ATOM     12  C10 UNL A   1      34.513  18.041  24.333  1.00  0.00    +0.000 C 
ATOM     13  C11 UNL A   1      33.960  19.291  24.606  1.00  0.00    +0.000 C 
ATOM     14  F1  UNL A   1      34.535  20.024  25.569  1.00  0.00    +0.000 F 
ATOM     93  H5  UNL A   1      31.365  19.180  22.489  1.00  0.00    +0.000 H 
ATOM     94  H6  UNL A   1      32.368  17.031  21.973  1.00  0.00    +0.000 H 
ATOM     95  H7  UNL A   1      34.349  16.293  23.163  1.00  0.00    +0.000 H 
ATOM     96  H8  UNL A   1      35.354  17.727  24.843  1.00  0.00    +0.000 H 
ENDBRANCH    7    8
ENDBRANCH    3    4
ENDBRANCH    2    3
ENDBRANCH   16    2
ENDBRANCH   17   16
ENDBRANCH   18   17
ENDBRANCH   19   18
ENDBRANCH   20   19
ENDBRANCH   21   20
ENDBRANCH   22   21
ENDBRANCH   23   22
ENDBRANCH   24   23
ENDBRANCH   26   24
ENDBRANCH   30   29
BRANCH   34   35
ATOM     35  C28 UNL A   1      35.720  33.173  30.703  1.00  0.00    +0.000 C 
ATOM     36  C29 UNL A   1      35.357  32.853  32.019  1.00  0.00    +0.000 C 
ATOM     37  F2  UNL A   1      36.062  31.968  32.735  1.00  0.00    +0.000 F 
ATOM     38  C30 UNL A   1      34.310  33.518  32.669  1.00  0.00    +0.000 C 
ATOM     39  F3  UNL A   1      34.019  33.210  33.940  1.00  0.00    +0.000 F 
ATOM     40  C31 UNL A   1      33.618  34.538  32.036  1.00  0.00    +0.000 C 
ATOM     41  F4  UNL A   1      32.687  35.236  32.699  1.00  0.00    +0.000 F 
ATOM     42  C32 UNL A   1      33.922  34.852  30.727  1.00  0.00    +0.000 C 
ATOM     43  F5  UNL A   1      33.285  35.859  30.114  1.00  0.00    +0.000 F 
ATOM     44  C33 UNL A   1      34.934  34.161  30.061  1.00  0.00    +0.000 C 
ATOM     45  F6  UNL A   1      35.183  34.516  28.791  1.00  0.00    +0.000 F 
ENDBRANCH   34   35
BRANCH   51   52
ATOM     52  C39 UNL A   1      40.931  32.667  33.053  1.00  0.00    +0.000 C 
ATOM     53  C40 UNL A   1      40.477  31.357  32.827  1.00  0.00    +0.000 C 
ATOM     54  F7  UNL A   1      40.067  30.985  31.617  1.00  0.00    +0.000 F 
ATOM     55  C41 UNL A   1      40.428  30.396  33.835  1.00  0.00    +0.000 C 
ATOM     56  F8  UNL A   1      39.965  29.166  33.566  1.00  0.00    +0.000 F 
ATOM     57  C42 UNL A   1      40.854  30.716  35.108  1.00  0.00    +0.000 C 
ATOM     58  F9  UNL A   1      40.811  29.796  36.081  1.00  0.00    +0.000 F 
ATOM     59  C43 UNL A   1      41.313  31.997  35.370  1.00  0.00    +0.000 C 
ATOM     60  F10 UNL A   1      41.724  32.312  36.606  1.00  0.00    +0.000 F 
ATOM     61  C44 UNL A   1      41.347  32.962  34.358  1.00  0.00    +0.000 C 
ATOM     62  F11 UNL A   1      41.794  34.191  34.656  1.00  0.00    +0.000 F 
ENDBRANCH   51   52
BRANCH   66   67
ATOM     67  C48 UNL A   1      46.074  31.532  29.903  1.00  0.00    +0.000 C 
ATOM     68  C49 UNL A   1      46.673  31.489  28.611  1.00  0.00    +0.000 C 
ATOM     69  F12 UNL A   1      45.940  31.553  27.492  1.00  0.00    +0.000 F 
ATOM     70  C50 UNL A   1      48.050  31.381  28.398  1.00  0.00    +0.000 C 
ATOM     71  F13 UNL A   1      48.523  31.253  27.149  1.00  0.00    +0.000 F 
ATOM     72  C51 UNL A   1      48.914  31.387  29.465  1.00  0.00    +0.000 C 
ATOM     73  F14 UNL A   1      50.232  31.258  29.273  1.00  0.00    +0.000 F 
ATOM     74  C52 UNL A   1      48.394  31.553  30.734  1.00  0.00    +0.000 C 
ATOM     75  F15 UNL A   1      49.227  31.628  31.781  1.00  0.00    +0.000 F 
ATOM     76  C53 UNL A   1      47.005  31.636  30.946  1.00  0.00    +0.000 C 
ATOM     77  F16 UNL A   1      46.623  31.862  32.204  1.00  0.00    +0.000 F 
ENDBRANCH   66   67
TORSDOF 17
ENDMDL
MODEL 10
REMARK VINA RESULT:     -11.7      7.794     13.744
ROOT
ATOM     30  C24 UNL A   1      23.145  36.123  50.250  1.00  0.00    +0.000 C 
ATOM     31  C25 UNL A   1      24.270  36.225  49.215  1.00  0.00    +0.000 C 
ATOM     32  N4  UNL A   1      24.265  36.730  48.017  1.00  0.00    +0.000 N 
ATOM     33  C26 UNL A   1      25.528  36.470  47.448  1.00  0.00    +0.000 C 
ATOM     34  C27 UNL A   1      25.799  36.571  46.115  1.00  0.00    +0.000 C 
ATOM     46  C34 UNL A   1      24.667  37.037  45.390  1.00  0.00    +0.000 C 
ATOM     47  C35 UNL A   1      24.103  38.270  45.203  1.00  0.00    +0.000 C 
ATOM     48  C36 UNL A   1      22.744  38.007  44.919  1.00  0.00    +0.000 C 
ATOM     49  C37 UNL A   1      22.541  36.625  44.909  1.00  0.00    +0.000 C 
ATOM     50  N5  UNL A   1      23.807  36.088  44.900  1.00  0.00    +0.000 N 
ATOM     51  C38 UNL A   1      21.431  35.718  45.108  1.00  0.00    +0.000 C 
ATOM     63  C45 UNL A   1      20.227  36.259  45.418  1.00  0.00    +0.000 C 
ATOM     64  N6  UNL A   1      19.455  35.689  46.407  1.00  0.00    +0.000 N 
ATOM     65  C46 UNL A   1      19.066  36.720  47.099  1.00  0.00    +0.000 C 
ATOM     66  C47 UNL A   1      18.518  36.661  48.468  1.00  0.00    +0.000 C 
ATOM     78  C54 UNL A   1      19.580  36.386  49.289  1.00  0.00    +0.000 C 
ATOM     79  C55 UNL A   1      19.570  36.176  50.724  1.00  0.00    +0.000 C 
ATOM     80  C56 UNL A   1      20.828  36.031  51.177  1.00  0.00    +0.000 C 
ATOM     81  C57 UNL A   1      21.794  36.148  50.074  1.00  0.00    +0.000 C 
ATOM     82  N7  UNL A   1      20.960  36.284  48.979  1.00  0.00    +0.000 N 
ATOM     83  C58 UNL A   1      19.271  38.032  46.472  1.00  0.00    +0.000 C 
ATOM     84  C59 UNL A   1      19.835  37.644  45.333  1.00  0.00    +0.000 C 
ATOM     85  C60 UNL A   1      26.353  35.956  48.502  1.00  0.00    +0.000 C 
ATOM     86  C61 UNL A   1      25.622  35.737  49.594  1.00  0.00    +0.000 C 
ATOM    114  H26 UNL A   1      24.568  39.190  45.259  1.00  0.00    +0.000 H 
ATOM    115  H27 UNL A   1      22.018  38.721  44.745  1.00  0.00    +0.000 H 
ATOM    116  H28 UNL A   1      24.051  35.184  44.596  1.00  0.00    +0.000 H 
ATOM    117  H29 UNL A   1      18.722  36.143  51.311  1.00  0.00    +0.000 H 
ATOM    118  H30 UNL A   1      21.082  35.861  52.163  1.00  0.00    +0.000 H 
ATOM    119  H31 UNL A   1      21.299  36.308  48.054  1.00  0.00    +0.000 H 
ATOM    120  H32 UNL A   1      19.043  38.979  46.815  1.00  0.00    +0.000 H 
ATOM    121  H33 UNL A   1      19.972  38.247  44.506  1.00  0.00    +0.000 H 
ATOM    122  H34 UNL A   1      27.367  35.782  48.425  1.00  0.00    +0.000 H 
ATOM    123  H35 UNL A   1      25.923  35.325  50.492  1.00  0.00    +0.000 H 
ENDROOT
BRANCH   30   29
ATOM    124  H36 UNL A   1      23.533  33.889  51.743  1.00  0.00    +0.000 H 
ATOM     29  C23 UNL A   1      23.643  36.002  51.642  1.00  0.00    +0.000 C 
ATOM    112  H24 UNL A   1      24.927  37.928  54.062  1.00  0.00    +0.000 H 
ATOM    113  H25 UNL A   1      23.826  38.093  51.908  1.00  0.00    +0.000 H 
ATOM     87  C62 UNL A   1      23.841  34.744  52.232  1.00  0.00    +0.000 C 
ATOM     88  C63 UNL A   1      24.457  34.655  53.480  1.00  0.00    +0.000 C 
ATOM     26  C20 UNL A   1      24.902  35.814  54.122  1.00  0.00    +0.000 C 
ATOM     27  C21 UNL A   1      24.646  37.071  53.559  1.00  0.00    +0.000 C 
ATOM     28  C22 UNL A   1      24.017  37.167  52.322  1.00  0.00    +0.000 C 
ATOM    125  H37 UNL A   1      24.585  33.734  53.928  1.00  0.00    +0.000 H 
BRANCH   26   24
ATOM     25  O2  UNL A   1      26.361  34.880  55.692  1.00  0.00    +0.000 O 
ATOM     24  C19 UNL A   1      25.578  35.783  55.438  1.00  0.00    +0.000 C 
BRANCH   24   23
ATOM    111  H23 UNL A   1      26.026  37.408  56.537  1.00  0.00    +0.000 H 
ATOM     23  N3  UNL A   1      25.320  36.737  56.395  1.00  0.00    +0.000 N 
BRANCH   23   22
ATOM    110  H22 UNL A   1      23.510  37.634  56.798  1.00  0.00    +0.000 H 
ATOM    109  H21 UNL A   1      24.429  37.142  58.216  1.00  0.00    +0.000 H 
ATOM     22  C18 UNL A   1      24.132  36.875  57.223  1.00  0.00    +0.000 C 
BRANCH   22   21
ATOM    107  H19 UNL A   1      23.778  34.884  56.576  1.00  0.00    +0.000 H 
ATOM    108  H20 UNL A   1      23.387  35.219  58.284  1.00  0.00    +0.000 H 
ATOM     21  C17 UNL A   1      23.340  35.568  57.273  1.00  0.00    +0.000 C 
BRANCH   21   20
ATOM    105  H17 UNL A   1      21.300  35.040  57.545  1.00  0.00    +0.000 H 
ATOM    106  H18 UNL A   1      21.610  36.746  57.100  1.00  0.00    +0.000 H 
ATOM     20  C16 UNL A   1      21.852  35.717  56.928  1.00  0.00    +0.000 C 
BRANCH   20   19
ATOM     19  C15 UNL A   1      21.491  35.433  55.468  1.00  0.00    +0.000 C 
ATOM    103  H15 UNL A   1      22.401  35.319  54.918  1.00  0.00    +0.000 H 
ATOM    104  H16 UNL A   1      20.883  34.552  55.480  1.00  0.00    +0.000 H 
BRANCH   19   18
ATOM     18  C14 UNL A   1      20.652  36.517  54.776  1.00  0.00    +0.000 C 
ATOM    101  H13 UNL A   1      20.507  36.225  53.758  1.00  0.00    +0.000 H 
ATOM    102  H14 UNL A   1      19.739  36.588  55.331  1.00  0.00    +0.000 H 
BRANCH   18   17
ATOM     17  C13 UNL A   1      21.269  37.915  54.786  1.00  0.00    +0.000 C 
ATOM     99  H11 UNL A   1      20.843  38.478  55.590  1.00  0.00    +0.000 H 
ATOM    100  H12 UNL A   1      22.327  37.816  54.911  1.00  0.00    +0.000 H 
BRANCH   17   16
ATOM     98  H10 UNL A   1      20.492  38.159  52.844  1.00  0.00    +0.000 H 
ATOM     16  N2  UNL A   1      21.021  38.609  53.541  1.00  0.00    +0.000 N 
BRANCH   16    2
ATOM      1  O1  UNL A   1      22.323  40.443  54.013  1.00  0.00    +0.000 O 
ATOM      2  C1  UNL A   1      21.500  39.881  53.298  1.00  0.00    +0.000 C 
BRANCH    2    3
ATOM     89  H1  UNL A   1      20.870  41.605  52.241  1.00  0.00    +0.000 H 
ATOM     90  H2  UNL A   1      19.871  40.158  51.999  1.00  0.00    +0.000 H 
ATOM      3  C2  UNL A   1      20.864  40.546  52.089  1.00  0.00    +0.000 C 
BRANCH    3    4
ATOM     97  H9  UNL A   1      23.600  40.830  51.233  1.00  0.00    +0.000 H 
ATOM      4  C3  UNL A   1      21.576  40.246  50.806  1.00  0.00    +0.000 C 
ATOM      5  C4  UNL A   1      21.028  39.729  49.603  1.00  0.00    +0.000 C 
ATOM      6  C5  UNL A   1      22.031  39.703  48.662  1.00  0.00    +0.000 C 
ATOM      7  N1  UNL A   1      23.198  40.173  49.229  1.00  0.00    +0.000 N 
ATOM     15  C12 UNL A   1      22.915  40.479  50.545  1.00  0.00    +0.000 C 
ATOM     91  H3  UNL A   1      20.051  39.427  49.460  1.00  0.00    +0.000 H 
ATOM     92  H4  UNL A   1      21.928  39.382  47.686  1.00  0.00    +0.000 H 
BRANCH    7    8
ATOM      8  C6  UNL A   1      24.439  40.348  48.561  1.00  0.00    +0.000 C 
ATOM      9  C7  UNL A   1      24.497  41.107  47.382  1.00  0.00    +0.000 C 
ATOM     10  C8  UNL A   1      25.718  41.305  46.731  1.00  0.00    +0.000 C 
ATOM     11  C9  UNL A   1      26.882  40.728  47.236  1.00  0.00    +0.000 C 
ATOM     12  C10 UNL A   1      26.829  39.964  48.399  1.00  0.00    +0.000 C 
ATOM     13  C11 UNL A   1      25.617  39.786  49.063  1.00  0.00    +0.000 C 
ATOM     14  F1  UNL A   1      25.618  39.007  50.155  1.00  0.00    +0.000 F 
ATOM     93  H5  UNL A   1      23.634  41.521  46.993  1.00  0.00    +0.000 H 
ATOM     94  H6  UNL A   1      25.758  41.878  45.874  1.00  0.00    +0.000 H 
ATOM     95  H7  UNL A   1      27.782  40.867  46.748  1.00  0.00    +0.000 H 
ATOM     96  H8  UNL A   1      27.689  39.529  48.771  1.00  0.00    +0.000 H 
ENDBRANCH    7    8
ENDBRANCH    3    4
ENDBRANCH    2    3
ENDBRANCH   16    2
ENDBRANCH   17   16
ENDBRANCH   18   17
ENDBRANCH   19   18
ENDBRANCH   20   19
ENDBRANCH   21   20
ENDBRANCH   22   21
ENDBRANCH   23   22
ENDBRANCH   24   23
ENDBRANCH   26   24
ENDBRANCH   30   29
BRANCH   34   35
ATOM     35  C28 UNL A   1      26.978  36.086  45.315  1.00  0.00    +0.000 C 
ATOM     36  C29 UNL A   1      26.956  34.915  44.544  1.00  0.00    +0.000 C 
ATOM     37  F2  UNL A   1      25.970  34.019  44.675  1.00  0.00    +0.000 F 
ATOM     38  C30 UNL A   1      27.905  34.685  43.540  1.00  0.00    +0.000 C 
ATOM     39  F3  UNL A   1      27.828  33.571  42.800  1.00  0.00    +0.000 F 
ATOM     40  C31 UNL A   1      28.879  35.628  43.257  1.00  0.00    +0.000 C 
ATOM     41  F4  UNL A   1      29.719  35.447  42.230  1.00  0.00    +0.000 F 
ATOM     42  C32 UNL A   1      28.954  36.774  44.022  1.00  0.00    +0.000 C 
ATOM     43  F5  UNL A   1      29.870  37.712  43.738  1.00  0.00    +0.000 F 
ATOM     44  C33 UNL A   1      28.039  36.986  45.053  1.00  0.00    +0.000 C 
ATOM     45  F6  UNL A   1      28.163  38.122  45.757  1.00  0.00    +0.000 F 
ENDBRANCH   34   35
BRANCH   51   52
ATOM     52  C39 UNL A   1      21.540  34.256  45.484  1.00  0.00    +0.000 C 
ATOM     53  C40 UNL A   1      20.967  33.223  44.726  1.00  0.00    +0.000 C 
ATOM     54  F7  UNL A   1      20.183  33.504  43.688  1.00  0.00    +0.000 F 
ATOM     55  C41 UNL A   1      21.179  31.876  45.012  1.00  0.00    +0.000 C 
ATOM     56  F8  UNL A   1      20.588  30.931  44.265  1.00  0.00    +0.000 F 
ATOM     57  C42 UNL A   1      21.995  31.519  46.066  1.00  0.00    +0.000 C 
ATOM     58  F9  UNL A   1      22.205  30.226  46.346  1.00  0.00    +0.000 F 
ATOM     59  C43 UNL A   1      22.583  32.511  46.837  1.00  0.00    +0.000 C 
ATOM     60  F10 UNL A   1      23.373  32.169  47.864  1.00  0.00    +0.000 F 
ATOM     61  C44 UNL A   1      22.355  33.861  46.554  1.00  0.00    +0.000 C 
ATOM     62  F11 UNL A   1      22.940  34.788  47.328  1.00  0.00    +0.000 F 
ENDBRANCH   51   52
BRANCH   66   67
ATOM     67  C48 UNL A   1      17.046  36.991  48.644  1.00  0.00    +0.000 C 
ATOM     68  C49 UNL A   1      16.640  37.992  49.573  1.00  0.00    +0.000 C 
ATOM     69  F12 UNL A   1      17.524  38.813  50.154  1.00  0.00    +0.000 F 
ATOM     70  C50 UNL A   1      15.312  38.204  49.953  1.00  0.00    +0.000 C 
ATOM     71  F13 UNL A   1      15.028  39.107  50.904  1.00  0.00    +0.000 F 
ATOM     72  C51 UNL A   1      14.304  37.478  49.367  1.00  0.00    +0.000 C 
ATOM     73  F14 UNL A   1      13.032  37.656  49.743  1.00  0.00    +0.000 F 
ATOM     74  C52 UNL A   1      14.632  36.582  48.370  1.00  0.00    +0.000 C 
ATOM     75  F15 UNL A   1      13.654  35.913  47.741  1.00  0.00    +0.000 F 
ATOM     76  C53 UNL A   1      15.972  36.352  48.007  1.00  0.00    +0.000 C 
ATOM     77  F16 UNL A   1      16.162  35.515  46.987  1.00  0.00    +0.000 F 
ENDBRANCH   66   67
TORSDOF 17
ENDMDL
