MODEL 1
REMARK VINA RESULT:     -10.1      0.000      0.000
ROOT
ATOM    129  H34 UNL A   1      38.687  26.915  27.650  1.00  0.00    +0.000 H 
ATOM    130  H35 UNL A   1      42.321  27.641  29.534  1.00  0.00    +0.000 H 
ATOM    131  H36 UNL A   1      45.315  23.797  28.296  1.00  0.00    +0.000 H 
ATOM    132  H37 UNL A   1      47.097  24.874  29.785  1.00  0.00    +0.000 H 
ATOM    133  H38 UNL A   1      41.024  32.677  31.563  1.00  0.00    +0.000 H 
ATOM    134  H39 UNL A   1      39.085  31.412  30.469  1.00  0.00    +0.000 H 
ATOM     37  C28 UNL A   1      39.854  28.936  29.287  1.00  0.00    +0.000 C 
ATOM     38  C29 UNL A   1      40.704  29.865  30.110  1.00  0.00    +0.000 C 
ATOM     39  N5  UNL A   1      41.959  29.745  30.463  1.00  0.00    +0.000 N 
ATOM     40  C30 UNL A   1      42.263  30.899  31.173  1.00  0.00    +0.000 C 
ATOM     41  C31 UNL A   1      43.421  31.229  31.794  1.00  0.00    +0.000 C 
ATOM     53  C38 UNL A   1      44.590  30.389  31.828  1.00  0.00    +0.000 C 
ATOM     54  C39 UNL A   1      45.790  30.606  32.483  1.00  0.00    +0.000 C 
ATOM     55  C40 UNL A   1      46.643  29.534  32.199  1.00  0.00    +0.000 C 
ATOM     56  C41 UNL A   1      45.960  28.629  31.402  1.00  0.00    +0.000 C 
ATOM     57  N6  UNL A   1      44.703  29.169  31.178  1.00  0.00    +0.000 N 
ATOM     58  C42 UNL A   1      46.418  27.366  30.883  1.00  0.00    +0.000 C 
ATOM     70  C49 UNL A   1      45.682  26.529  30.110  1.00  0.00    +0.000 C 
ATOM     71  N7  UNL A   1      44.377  26.675  29.664  1.00  0.00    +0.000 N 
ATOM     72  C50 UNL A   1      44.121  25.611  28.944  1.00  0.00    +0.000 C 
ATOM     73  C51 UNL A   1      42.849  25.227  28.237  1.00  0.00    +0.000 C 
ATOM     85  C58 UNL A   1      41.773  26.030  28.335  1.00  0.00    +0.000 C 
ATOM     86  C59 UNL A   1      40.475  25.785  27.712  1.00  0.00    +0.000 C 
ATOM     87  C60 UNL A   1      39.659  26.817  27.983  1.00  0.00    +0.000 C 
ATOM     88  C61 UNL A   1      40.368  27.779  28.828  1.00  0.00    +0.000 C 
ATOM     89  N8  UNL A   1      41.612  27.223  28.994  1.00  0.00    +0.000 N 
ATOM     90  C62 UNL A   1      45.250  24.679  28.829  1.00  0.00    +0.000 C 
ATOM     91  C63 UNL A   1      46.163  25.266  29.589  1.00  0.00    +0.000 C 
ATOM     92  C64 UNL A   1      41.076  31.726  31.163  1.00  0.00    +0.000 C 
ATOM     93  C65 UNL A   1      40.064  31.105  30.574  1.00  0.00    +0.000 C 
ATOM    125  H30 UNL A   1      46.017  31.417  33.078  1.00  0.00    +0.000 H 
ATOM    126  H31 UNL A   1      47.617  29.433  32.527  1.00  0.00    +0.000 H 
ATOM    127  H32 UNL A   1      43.996  28.748  30.637  1.00  0.00    +0.000 H 
ATOM    128  H33 UNL A   1      40.225  24.955  27.154  1.00  0.00    +0.000 H 
ENDROOT
BRANCH   37   36
ATOM     33  C24 UNL A   1      35.851  30.092  28.274  1.00  0.00    +0.000 C 
ATOM     34  C25 UNL A   1      36.875  30.251  27.335  1.00  0.00    +0.000 C 
ATOM     35  C26 UNL A   1      38.177  29.852  27.649  1.00  0.00    +0.000 C 
ATOM     36  C27 UNL A   1      38.469  29.322  28.916  1.00  0.00    +0.000 C 
ATOM    135  H40 UNL A   1      37.637  28.768  30.780  1.00  0.00    +0.000 H 
ATOM    136  H41 UNL A   1      35.352  29.297  30.165  1.00  0.00    +0.000 H 
ATOM    123  H28 UNL A   1      36.670  30.661  26.410  1.00  0.00    +0.000 H 
ATOM    124  H29 UNL A   1      38.927  29.949  26.948  1.00  0.00    +0.000 H 
ATOM     94  C66 UNL A   1      37.431  29.150  29.843  1.00  0.00    +0.000 C 
ATOM     95  C67 UNL A   1      36.122  29.490  29.506  1.00  0.00    +0.000 C 
BRANCH   33   31
ATOM     31  C23 UNL A   1      34.478  30.517  27.913  1.00  0.00    +0.000 C 
ATOM     32  O3  UNL A   1      34.117  31.663  28.141  1.00  0.00    +0.000 O 
BRANCH   31   30
ATOM    122  H27 UNL A   1      32.696  29.629  27.669  1.00  0.00    +0.000 H 
ATOM     30  N4  UNL A   1      33.614  29.630  27.314  1.00  0.00    +0.000 N 
BRANCH   30   29
ATOM    121  H26 UNL A   1      34.925  28.542  26.165  1.00  0.00    +0.000 H 
ATOM     29  C22 UNL A   1      33.868  28.695  26.230  1.00  0.00    +0.000 C 
ATOM    120  H25 UNL A   1      33.481  29.105  25.321  1.00  0.00    +0.000 H 
BRANCH   29   28
ATOM     28  C21 UNL A   1      33.210  27.339  26.481  1.00  0.00    +0.000 C 
ATOM    118  H23 UNL A   1      33.649  26.628  25.812  1.00  0.00    +0.000 H 
ATOM    119  H24 UNL A   1      33.376  27.112  27.513  1.00  0.00    +0.000 H 
BRANCH   28   27
ATOM     27  C20 UNL A   1      31.689  27.310  26.276  1.00  0.00    +0.000 C 
ATOM    116  H21 UNL A   1      31.242  26.960  27.182  1.00  0.00    +0.000 H 
ATOM    117  H22 UNL A   1      31.409  28.308  26.012  1.00  0.00    +0.000 H 
BRANCH   27   26
ATOM     26  C19 UNL A   1      31.193  26.418  25.131  1.00  0.00    +0.000 C 
ATOM    115  H20 UNL A   1      30.768  25.547  25.585  1.00  0.00    +0.000 H 
ATOM    114  H19 UNL A   1      32.025  26.193  24.497  1.00  0.00    +0.000 H 
BRANCH   26   25
ATOM     25  C18 UNL A   1      30.092  27.046  24.273  1.00  0.00    +0.000 C 
ATOM    113  H18 UNL A   1      29.808  27.958  24.755  1.00  0.00    +0.000 H 
ATOM    112  H17 UNL A   1      29.284  26.348  24.200  1.00  0.00    +0.000 H 
BRANCH   25   24
ATOM    110  H15 UNL A   1      30.477  26.551  22.221  1.00  0.00    +0.000 H 
ATOM    111  H16 UNL A   1      29.898  28.186  22.469  1.00  0.00    +0.000 H 
ATOM     24  C17 UNL A   1      30.538  27.417  22.848  1.00  0.00    +0.000 C 
BRANCH   24   23
ATOM    109  H14 UNL A   1      32.063  28.740  23.356  1.00  0.00    +0.000 H 
ATOM     23  N3  UNL A   1      31.904  27.902  22.864  1.00  0.00    +0.000 N 
BRANCH   23   21
ATOM     21  C16 UNL A   1      33.004  27.323  22.269  1.00  0.00    +0.000 C 
ATOM     22  O2  UNL A   1      33.953  28.038  21.951  1.00  0.00    +0.000 O 
BRANCH   21    2
ATOM      2  C2  UNL A   1      33.034  25.880  21.793  1.00  0.00    +0.000 C 
BRANCH    2    1
ATOM      1  C1  UNL A   1      32.655  25.713  20.341  1.00  0.00    +0.000 C 
ATOM     98  H3  UNL A   1      31.631  25.991  20.207  1.00  0.00    +0.000 H 
ATOM     97  H2  UNL A   1      33.278  26.338  19.736  1.00  0.00    +0.000 H 
ATOM     96  H1  UNL A   1      32.787  24.690  20.053  1.00  0.00    +0.000 H 
ENDBRANCH    2    1
BRANCH    2    3
ATOM      3  N1  UNL A   1      33.403  24.812  22.440  1.00  0.00    +0.000 N 
BRANCH    3    4
ATOM      4  O1  UNL A   1      32.508  23.754  22.330  1.00  0.00    +0.000 O 
BRANCH    4    5
ATOM     99  H4  UNL A   1      34.069  22.544  22.827  1.00  0.00    +0.000 H 
ATOM    100  H5  UNL A   1      32.475  21.759  22.536  1.00  0.00    +0.000 H 
ATOM      5  C3  UNL A   1      33.009  22.573  22.978  1.00  0.00    +0.000 C 
BRANCH    5    6
ATOM    101  H6  UNL A   1      30.696  22.946  24.357  1.00  0.00    +0.000 H 
ATOM      6  C4  UNL A   1      32.753  22.459  24.472  1.00  0.00    +0.000 C 
ATOM      7  C5  UNL A   1      31.482  22.749  24.996  1.00  0.00    +0.000 C 
ATOM      8  C6  UNL A   1      31.276  22.773  26.376  1.00  0.00    +0.000 C 
ATOM    102  H7  UNL A   1      30.335  22.963  26.755  1.00  0.00    +0.000 H 
ATOM     10  C8  UNL A   1      33.604  22.227  26.727  1.00  0.00    +0.000 C 
ATOM     11  C9  UNL A   1      33.807  22.110  25.348  1.00  0.00    +0.000 C 
ATOM    104  H9  UNL A   1      34.395  22.083  27.374  1.00  0.00    +0.000 H 
ATOM      9  C7  UNL A   1      32.342  22.538  27.240  1.00  0.00    +0.000 C 
ATOM    103  H8  UNL A   1      32.199  22.594  28.260  1.00  0.00    +0.000 H 
BRANCH   11   12
ATOM    105  H10 UNL A   1      35.012  21.124  24.024  1.00  0.00    +0.000 H 
ATOM     12  N2  UNL A   1      35.056  21.750  24.782  1.00  0.00    +0.000 N 
BRANCH   12   13
ATOM    106  H11 UNL A   1      39.371  20.799  25.839  1.00  0.00    +0.000 H 
ATOM    107  H12 UNL A   1      39.897  23.105  26.377  1.00  0.00    +0.000 H 
ATOM    108  H13 UNL A   1      38.177  24.806  26.203  1.00  0.00    +0.000 H 
ATOM     13  C10 UNL A   1      36.358  22.167  25.153  1.00  0.00    +0.000 C 
ATOM     14  C11 UNL A   1      37.365  21.190  25.306  1.00  0.00    +0.000 C 
ATOM     15 Cl1  UNL A   1      37.054  19.519  24.965  1.00  0.00    +0.000 Cl
ATOM     16  C12 UNL A   1      38.647  21.529  25.748  1.00  0.00    +0.000 C 
ATOM     17  C13 UNL A   1      38.947  22.850  26.066  1.00  0.00    +0.000 C 
ATOM     18  C14 UNL A   1      37.958  23.826  25.960  1.00  0.00    +0.000 C 
ATOM     19  C15 UNL A   1      36.670  23.488  25.527  1.00  0.00    +0.000 C 
ATOM     20 Cl2  UNL A   1      35.487  24.751  25.527  1.00  0.00    +0.000 Cl
ENDBRANCH   12   13
ENDBRANCH   11   12
ENDBRANCH    5    6
ENDBRANCH    4    5
ENDBRANCH    3    4
ENDBRANCH    2    3
ENDBRANCH   21    2
ENDBRANCH   23   21
ENDBRANCH   24   23
ENDBRANCH   25   24
ENDBRANCH   26   25
ENDBRANCH   27   26
ENDBRANCH   28   27
ENDBRANCH   29   28
ENDBRANCH   30   29
ENDBRANCH   31   30
ENDBRANCH   33   31
ENDBRANCH   37   36
BRANCH   41   42
ATOM     42  C32 UNL A   1      43.480  32.556  32.493  1.00  0.00    +0.000 C 
ATOM     43  C33 UNL A   1      43.898  33.718  31.826  1.00  0.00    +0.000 C 
ATOM     44  F1  UNL A   1      44.300  33.655  30.548  1.00  0.00    +0.000 F 
ATOM     45  C34 UNL A   1      43.940  34.945  32.483  1.00  0.00    +0.000 C 
ATOM     46  F2  UNL A   1      44.388  36.032  31.840  1.00  0.00    +0.000 F 
ATOM     47  C35 UNL A   1      43.534  35.040  33.806  1.00  0.00    +0.000 C 
ATOM     48  F3  UNL A   1      43.570  36.224  34.435  1.00  0.00    +0.000 F 
ATOM     49  C36 UNL A   1      43.097  33.909  34.478  1.00  0.00    +0.000 C 
ATOM     50  F4  UNL A   1      42.693  34.003  35.752  1.00  0.00    +0.000 F 
ATOM     51  C37 UNL A   1      43.080  32.675  33.832  1.00  0.00    +0.000 C 
ATOM     52  F5  UNL A   1      42.665  31.596  34.513  1.00  0.00    +0.000 F 
ENDBRANCH   41   42
BRANCH   58   59
ATOM     65  F8  UNL A   1      51.644  25.763  32.303  1.00  0.00    +0.000 F 
ATOM     66  C47 UNL A   1      49.322  25.754  32.735  1.00  0.00    +0.000 C 
ATOM     67  F9  UNL A   1      49.515  25.010  33.833  1.00  0.00    +0.000 F 
ATOM     68  C48 UNL A   1      48.033  26.132  32.370  1.00  0.00    +0.000 C 
ATOM     69  F10 UNL A   1      47.003  25.730  33.130  1.00  0.00    +0.000 F 
ATOM     59  C43 UNL A   1      47.808  26.928  31.237  1.00  0.00    +0.000 C 
ATOM     60  C44 UNL A   1      48.919  27.325  30.480  1.00  0.00    +0.000 C 
ATOM     61  F6  UNL A   1      48.753  28.073  29.378  1.00  0.00    +0.000 F 
ATOM     62  C45 UNL A   1      50.205  26.923  30.833  1.00  0.00    +0.000 C 
ATOM     63  F7  UNL A   1      51.248  27.278  30.070  1.00  0.00    +0.000 F 
ATOM     64  C46 UNL A   1      50.406  26.144  31.963  1.00  0.00    +0.000 C 
ENDBRANCH   58   59
BRANCH   73   74
ATOM     74  C52 UNL A   1      42.761  23.962  27.465  1.00  0.00    +0.000 C 
ATOM     75  C53 UNL A   1      42.354  22.771  28.083  1.00  0.00    +0.000 C 
ATOM     76  F11 UNL A   1      42.063  22.764  29.393  1.00  0.00    +0.000 F 
ATOM     77  C54 UNL A   1      42.280  21.578  27.370  1.00  0.00    +0.000 C 
ATOM     78  F12 UNL A   1      41.928  20.447  27.995  1.00  0.00    +0.000 F 
ATOM     79  C55 UNL A   1      42.586  21.556  26.018  1.00  0.00    +0.000 C 
ATOM     80  F13 UNL A   1      42.511  20.409  25.330  1.00  0.00    +0.000 F 
ATOM     81  C56 UNL A   1      42.976  22.725  25.380  1.00  0.00    +0.000 C 
ATOM     82  F14 UNL A   1      43.259  22.711  24.071  1.00  0.00    +0.000 F 
ATOM     83  C57 UNL A   1      43.074  23.914  26.099  1.00  0.00    +0.000 C 
ATOM     84  F15 UNL A   1      43.463  25.028  25.460  1.00  0.00    +0.000 F 
ENDBRANCH   73   74
TORSDOF 22
ENDMDL
MODEL 2
REMARK VINA RESULT:      -9.9     19.251     23.877
ROOT
ATOM    129  H34 UNL A   1      50.359  22.006  12.346  1.00  0.00    +0.000 H 
ATOM    130  H35 UNL A   1      54.170  20.934  13.614  1.00  0.00    +0.000 H 
ATOM    131  H36 UNL A   1      54.505  22.423  18.404  1.00  0.00    +0.000 H 
ATOM    132  H37 UNL A   1      56.915  21.562  18.368  1.00  0.00    +0.000 H 
ATOM    133  H38 UNL A   1      55.670  18.208   8.981  1.00  0.00    +0.000 H 
ATOM    134  H39 UNL A   1      53.439  19.456   8.834  1.00  0.00    +0.000 H 
ATOM     37  C28 UNL A   1      52.641  20.666  11.288  1.00  0.00    +0.000 C 
ATOM     38  C29 UNL A   1      53.938  19.968  10.987  1.00  0.00    +0.000 C 
ATOM     39  N5  UNL A   1      54.970  19.766  11.766  1.00  0.00    +0.000 N 
ATOM     40  C30 UNL A   1      55.876  19.032  11.012  1.00  0.00    +0.000 C 
ATOM     41  C31 UNL A   1      57.121  18.619  11.352  1.00  0.00    +0.000 C 
ATOM     53  C38 UNL A   1      57.748  18.893  12.618  1.00  0.00    +0.000 C 
ATOM     54  C39 UNL A   1      59.028  18.573  13.035  1.00  0.00    +0.000 C 
ATOM     55  C40 UNL A   1      59.180  19.009  14.356  1.00  0.00    +0.000 C 
ATOM     56  C41 UNL A   1      58.009  19.639  14.747  1.00  0.00    +0.000 C 
ATOM     57  N6  UNL A   1      57.137  19.556  13.673  1.00  0.00    +0.000 N 
ATOM     58  C42 UNL A   1      57.707  20.269  16.006  1.00  0.00    +0.000 C 
ATOM     70  C49 UNL A   1      56.533  20.874  16.312  1.00  0.00    +0.000 C 
ATOM     71  N7  UNL A   1      55.402  21.031  15.524  1.00  0.00    +0.000 N 
ATOM     72  C50 UNL A   1      54.531  21.669  16.267  1.00  0.00    +0.000 C 
ATOM     73  C51 UNL A   1      53.142  22.129  15.918  1.00  0.00    +0.000 C 
ATOM     85  C58 UNL A   1      52.668  21.911  14.676  1.00  0.00    +0.000 C 
ATOM     86  C59 UNL A   1      51.348  22.304  14.192  1.00  0.00    +0.000 C 
ATOM     87  C60 UNL A   1      51.203  21.881  12.926  1.00  0.00    +0.000 C 
ATOM     88  C61 UNL A   1      52.435  21.217  12.499  1.00  0.00    +0.000 C 
ATOM     89  N8  UNL A   1      53.252  21.291  13.599  1.00  0.00    +0.000 N 
ATOM     90  C62 UNL A   1      55.005  21.967  17.625  1.00  0.00    +0.000 C 
ATOM     91  C63 UNL A   1      56.244  21.495  17.588  1.00  0.00    +0.000 C 
ATOM     92  C64 UNL A   1      55.255  18.785   9.729  1.00  0.00    +0.000 C 
ATOM     93  C65 UNL A   1      54.082  19.397   9.639  1.00  0.00    +0.000 C 
ATOM    125  H30 UNL A   1      59.747  18.095  12.470  1.00  0.00    +0.000 H 
ATOM    126  H31 UNL A   1      60.022  18.883  14.940  1.00  0.00    +0.000 H 
ATOM    127  H32 UNL A   1      56.221  19.915  13.661  1.00  0.00    +0.000 H 
ATOM    128  H33 UNL A   1      50.641  22.822  14.735  1.00  0.00    +0.000 H 
ENDROOT
BRANCH   37   36
ATOM     33  C24 UNL A   1      49.548  20.752   8.318  1.00  0.00    +0.000 C 
ATOM     34  C25 UNL A   1      49.725  19.605   9.099  1.00  0.00    +0.000 C 
ATOM     35  C26 UNL A   1      50.714  19.580  10.086  1.00  0.00    +0.000 C 
ATOM     36  C27 UNL A   1      51.553  20.690  10.276  1.00  0.00    +0.000 C 
ATOM    135  H40 UNL A   1      51.971  22.659   9.628  1.00  0.00    +0.000 H 
ATOM    136  H41 UNL A   1      50.141  22.760   8.041  1.00  0.00    +0.000 H 
ATOM    123  H28 UNL A   1      49.126  18.779   8.947  1.00  0.00    +0.000 H 
ATOM    124  H29 UNL A   1      50.829  18.742  10.676  1.00  0.00    +0.000 H 
ATOM     94  C66 UNL A   1      51.354  21.841   9.501  1.00  0.00    +0.000 C 
ATOM     95  C67 UNL A   1      50.327  21.888   8.560  1.00  0.00    +0.000 C 
BRANCH   33   31
ATOM     31  C23 UNL A   1      48.488  20.756   7.283  1.00  0.00    +0.000 C 
ATOM     32  O3  UNL A   1      48.012  21.817   6.905  1.00  0.00    +0.000 O 
BRANCH   31   30
ATOM    122  H27 UNL A   1      47.235  19.195   7.152  1.00  0.00    +0.000 H 
ATOM     30  N4  UNL A   1      48.046  19.572   6.740  1.00  0.00    +0.000 N 
BRANCH   30   29
ATOM    121  H26 UNL A   1      49.650  18.651   5.845  1.00  0.00    +0.000 H 
ATOM     29  C22 UNL A   1      48.610  18.800   5.644  1.00  0.00    +0.000 C 
ATOM    120  H25 UNL A   1      48.466  19.339   4.732  1.00  0.00    +0.000 H 
BRANCH   29   28
ATOM     28  C21 UNL A   1      47.952  17.428   5.516  1.00  0.00    +0.000 C 
ATOM    118  H23 UNL A   1      47.950  17.156   4.481  1.00  0.00    +0.000 H 
ATOM    119  H24 UNL A   1      48.524  16.763   6.129  1.00  0.00    +0.000 H 
BRANCH   28   27
ATOM     27  C20 UNL A   1      46.509  17.350   6.031  1.00  0.00    +0.000 C 
ATOM    116  H21 UNL A   1      46.486  16.652   6.842  1.00  0.00    +0.000 H 
ATOM    117  H22 UNL A   1      46.243  18.347   6.311  1.00  0.00    +0.000 H 
BRANCH   27   26
ATOM     26  C19 UNL A   1      45.461  16.909   5.001  1.00  0.00    +0.000 C 
ATOM    115  H20 UNL A   1      44.504  17.115   5.433  1.00  0.00    +0.000 H 
ATOM    114  H19 UNL A   1      45.610  15.870   4.795  1.00  0.00    +0.000 H 
BRANCH   26   25
ATOM     25  C18 UNL A   1      45.518  17.674   3.676  1.00  0.00    +0.000 C 
ATOM    113  H18 UNL A   1      44.766  17.248   3.044  1.00  0.00    +0.000 H 
ATOM    112  H17 UNL A   1      46.504  17.573   3.273  1.00  0.00    +0.000 H 
BRANCH   25   24
ATOM    110  H15 UNL A   1      44.262  19.294   4.307  1.00  0.00    +0.000 H 
ATOM    111  H16 UNL A   1      45.977  19.653   4.353  1.00  0.00    +0.000 H 
ATOM     24  C17 UNL A   1      45.197  19.173   3.799  1.00  0.00    +0.000 C 
BRANCH   24   23
ATOM    109  H14 UNL A   1      45.909  19.696   1.915  1.00  0.00    +0.000 H 
ATOM     23  N3  UNL A   1      45.110  19.775   2.484  1.00  0.00    +0.000 N 
BRANCH   23   21
ATOM     21  C16 UNL A   1      44.035  20.444   1.940  1.00  0.00    +0.000 C 
ATOM     22  O2  UNL A   1      43.967  21.665   2.069  1.00  0.00    +0.000 O 
BRANCH   21    2
ATOM      2  C2  UNL A   1      42.818  19.739   1.362  1.00  0.00    +0.000 C 
BRANCH    2    1
ATOM      1  C1  UNL A   1      42.854  19.602  -0.141  1.00  0.00    +0.000 C 
ATOM     98  H3  UNL A   1      42.241  20.359  -0.582  1.00  0.00    +0.000 H 
ATOM     97  H2  UNL A   1      43.862  19.712  -0.485  1.00  0.00    +0.000 H 
ATOM     96  H1  UNL A   1      42.485  18.637  -0.420  1.00  0.00    +0.000 H 
ENDBRANCH    2    1
BRANCH    2    3
ATOM      3  N1  UNL A   1      41.815  19.192   1.987  1.00  0.00    +0.000 N 
BRANCH    3    4
ATOM      4  O1  UNL A   1      40.797  20.086   2.299  1.00  0.00    +0.000 O 
BRANCH    4    5
ATOM     99  H4  UNL A   1      39.671  18.794   1.198  1.00  0.00    +0.000 H 
ATOM    100  H5  UNL A   1      39.569  20.542   0.780  1.00  0.00    +0.000 H 
ATOM      5  C3  UNL A   1      39.603  19.802   1.551  1.00  0.00    +0.000 C 
BRANCH    5    6
ATOM    101  H6  UNL A   1      38.660  18.356   3.652  1.00  0.00    +0.000 H 
ATOM      6  C4  UNL A   1      38.286  19.940   2.299  1.00  0.00    +0.000 C 
ATOM      7  C5  UNL A   1      37.963  19.046   3.334  1.00  0.00    +0.000 C 
ATOM      8  C6  UNL A   1      36.704  19.087   3.934  1.00  0.00    +0.000 C 
ATOM    102  H7  UNL A   1      36.480  18.445   4.710  1.00  0.00    +0.000 H 
ATOM     10  C8  UNL A   1      36.071  20.904   2.472  1.00  0.00    +0.000 C 
ATOM     11  C9  UNL A   1      37.357  20.938   1.922  1.00  0.00    +0.000 C 
ATOM    104  H9  UNL A   1      35.350  21.556   2.125  1.00  0.00    +0.000 H 
ATOM      9  C7  UNL A   1      35.751  19.997   3.485  1.00  0.00    +0.000 C 
ATOM    103  H8  UNL A   1      34.807  20.001   3.901  1.00  0.00    +0.000 H 
BRANCH   11   12
ATOM    105  H10 UNL A   1      38.347  22.587   1.229  1.00  0.00    +0.000 H 
ATOM     12  N2  UNL A   1      37.744  21.870   0.926  1.00  0.00    +0.000 N 
BRANCH   12   13
ATOM    106  H11 UNL A   1      38.890  21.926  -3.470  1.00  0.00    +0.000 H 
ATOM    107  H12 UNL A   1      36.601  22.246  -4.209  1.00  0.00    +0.000 H 
ATOM    108  H13 UNL A   1      34.820  22.418  -2.573  1.00  0.00    +0.000 H 
ATOM     13  C10 UNL A   1      37.385  21.913  -0.444  1.00  0.00    +0.000 C 
ATOM     14  C11 UNL A   1      38.409  21.862  -1.414  1.00  0.00    +0.000 C 
ATOM     15 Cl1  UNL A   1      40.070  21.662  -0.959  1.00  0.00    +0.000 Cl
ATOM     16  C12 UNL A   1      38.126  21.981  -2.778  1.00  0.00    +0.000 C 
ATOM     17  C13 UNL A   1      36.815  22.174  -3.202  1.00  0.00    +0.000 C 
ATOM     18  C14 UNL A   1      35.792  22.266  -2.260  1.00  0.00    +0.000 C 
ATOM     19  C15 UNL A   1      36.074  22.158  -0.893  1.00  0.00    +0.000 C 
ATOM     20 Cl2  UNL A   1      34.753  22.388   0.200  1.00  0.00    +0.000 Cl
ENDBRANCH   12   13
ENDBRANCH   11   12
ENDBRANCH    5    6
ENDBRANCH    4    5
ENDBRANCH    3    4
ENDBRANCH    2    3
ENDBRANCH   21    2
ENDBRANCH   23   21
ENDBRANCH   24   23
ENDBRANCH   25   24
ENDBRANCH   26   25
ENDBRANCH   27   26
ENDBRANCH   28   27
ENDBRANCH   29   28
ENDBRANCH   30   29
ENDBRANCH   31   30
ENDBRANCH   33   31
ENDBRANCH   37   36
BRANCH   41   42
ATOM     42  C32 UNL A   1      57.891  17.828  10.335  1.00  0.00    +0.000 C 
ATOM     43  C33 UNL A   1      58.682  18.458   9.362  1.00  0.00    +0.000 C 
ATOM     44  F1  UNL A   1      58.729  19.797   9.293  1.00  0.00    +0.000 F 
ATOM     45  C34 UNL A   1      59.399  17.713   8.429  1.00  0.00    +0.000 C 
ATOM     46  F2  UNL A   1      60.110  18.336   7.480  1.00  0.00    +0.000 F 
ATOM     47  C35 UNL A   1      59.367  16.327   8.473  1.00  0.00    +0.000 C 
ATOM     48  F3  UNL A   1      60.063  15.611   7.577  1.00  0.00    +0.000 F 
ATOM     49  C36 UNL A   1      58.609  15.684   9.439  1.00  0.00    +0.000 C 
ATOM     50  F4  UNL A   1      58.587  14.345   9.489  1.00  0.00    +0.000 F 
ATOM     51  C37 UNL A   1      57.869  16.426  10.356  1.00  0.00    +0.000 C 
ATOM     52  F5  UNL A   1      57.134  15.774  11.270  1.00  0.00    +0.000 F 
ENDBRANCH   41   42
BRANCH   58   59
ATOM     65  F8  UNL A   1      61.668  20.289  20.033  1.00  0.00    +0.000 F 
ATOM     66  C47 UNL A   1      59.978  19.145  18.842  1.00  0.00    +0.000 C 
ATOM     67  F9  UNL A   1      60.178  18.049  19.586  1.00  0.00    +0.000 F 
ATOM     68  C48 UNL A   1      59.018  19.137  17.835  1.00  0.00    +0.000 C 
ATOM     69  F10 UNL A   1      58.314  18.014  17.624  1.00  0.00    +0.000 F 
ATOM     59  C43 UNL A   1      58.778  20.279  17.057  1.00  0.00    +0.000 C 
ATOM     60  C44 UNL A   1      59.537  21.428  17.321  1.00  0.00    +0.000 C 
ATOM     61  F6  UNL A   1      59.355  22.540  16.593  1.00  0.00    +0.000 F 
ATOM     62  C45 UNL A   1      60.515  21.425  18.312  1.00  0.00    +0.000 C 
ATOM     63  F7  UNL A   1      61.260  22.521  18.519  1.00  0.00    +0.000 F 
ATOM     64  C46 UNL A   1      60.730  20.288  19.076  1.00  0.00    +0.000 C 
ENDBRANCH   58   59
BRANCH   73   74
ATOM     74  C52 UNL A   1      52.306  22.848  16.912  1.00  0.00    +0.000 C 
ATOM     75  C53 UNL A   1      52.240  24.248  16.916  1.00  0.00    +0.000 C 
ATOM     76  F11 UNL A   1      52.956  24.953  16.028  1.00  0.00    +0.000 F 
ATOM     77  C54 UNL A   1      51.468  24.930  17.853  1.00  0.00    +0.000 C 
ATOM     78  F12 UNL A   1      51.455  26.269  17.860  1.00  0.00    +0.000 F 
ATOM     79  C55 UNL A   1      50.727  24.224  18.789  1.00  0.00    +0.000 C 
ATOM     80  F13 UNL A   1      49.981  24.880  19.688  1.00  0.00    +0.000 F 
ATOM     81  C56 UNL A   1      50.763  22.838  18.795  1.00  0.00    +0.000 C 
ATOM     82  F14 UNL A   1      50.038  22.153  19.689  1.00  0.00    +0.000 F 
ATOM     83  C57 UNL A   1      51.555  22.155  17.874  1.00  0.00    +0.000 C 
ATOM     84  F15 UNL A   1      51.580  20.815  17.908  1.00  0.00    +0.000 F 
ENDBRANCH   73   74
TORSDOF 22
ENDMDL
MODEL 3
REMARK VINA RESULT:      -9.7     33.705     39.642
ROOT
ATOM    129  H34 UNL A   1       5.123   2.861  24.303  1.00  0.00    +0.000 H 
ATOM    130  H35 UNL A   1       7.619   5.718  26.002  1.00  0.00    +0.000 H 
ATOM    131  H36 UNL A   1       5.684  10.180  24.729  1.00  0.00    +0.000 H 
ATOM    132  H37 UNL A   1       7.661  11.243  25.960  1.00  0.00    +0.000 H 
ATOM    133  H38 UNL A   1      10.897   2.164  28.791  1.00  0.00    +0.000 H 
ATOM    134  H39 UNL A   1       9.213   1.072  27.202  1.00  0.00    +0.000 H 
ATOM     37  C28 UNL A   1       7.445   2.927  25.955  1.00  0.00    +0.000 C 
ATOM     38  C29 UNL A   1       8.622   3.231  26.841  1.00  0.00    +0.000 C 
ATOM     39  N5  UNL A   1       9.090   4.391  27.227  1.00  0.00    +0.000 N 
ATOM     40  C30 UNL A   1      10.154   4.107  28.071  1.00  0.00    +0.000 C 
ATOM     41  C31 UNL A   1      10.999   4.970  28.686  1.00  0.00    +0.000 C 
ATOM     53  C38 UNL A   1      10.934   6.402  28.553  1.00  0.00    +0.000 C 
ATOM     54  C39 UNL A   1      11.782   7.358  29.085  1.00  0.00    +0.000 C 
ATOM     55  C40 UNL A   1      11.302   8.620  28.718  1.00  0.00    +0.000 C 
ATOM     56  C41 UNL A   1      10.180   8.449  27.923  1.00  0.00    +0.000 C 
ATOM     57  N6  UNL A   1       9.963   7.083  27.834  1.00  0.00    +0.000 N 
ATOM     58  C42 UNL A   1       9.367   9.455  27.291  1.00  0.00    +0.000 C 
ATOM     70  C49 UNL A   1       8.282   9.206  26.517  1.00  0.00    +0.000 C 
ATOM     71  N7  UNL A   1       7.727   7.985  26.159  1.00  0.00    +0.000 N 
ATOM     72  C50 UNL A   1       6.687   8.266  25.414  1.00  0.00    +0.000 C 
ATOM     73  C51 UNL A   1       5.729   7.329  24.729  1.00  0.00    +0.000 C 
ATOM     85  C58 UNL A   1       5.920   6.000  24.833  1.00  0.00    +0.000 C 
ATOM     86  C59 UNL A   1       5.081   4.975  24.221  1.00  0.00    +0.000 C 
ATOM     87  C60 UNL A   1       5.540   3.764  24.577  1.00  0.00    +0.000 C 
ATOM     88  C61 UNL A   1       6.728   3.930  25.416  1.00  0.00    +0.000 C 
ATOM     89  N8  UNL A   1       6.885   5.291  25.504  1.00  0.00    +0.000 N 
ATOM     90  C62 UNL A   1       6.448   9.705  25.236  1.00  0.00    +0.000 C 
ATOM     91  C63 UNL A   1       7.470  10.231  25.896  1.00  0.00    +0.000 C 
ATOM     92  C64 UNL A   1      10.236   2.667  28.178  1.00  0.00    +0.000 C 
ATOM     93  C65 UNL A   1       9.352   2.077  27.387  1.00  0.00    +0.000 C 
ATOM    125  H30 UNL A   1      12.623   7.172  29.653  1.00  0.00    +0.000 H 
ATOM    126  H31 UNL A   1      11.715   9.526  28.993  1.00  0.00    +0.000 H 
ATOM    127  H32 UNL A   1       9.227   6.660  27.335  1.00  0.00    +0.000 H 
ATOM    128  H33 UNL A   1       4.266   5.151  23.614  1.00  0.00    +0.000 H 
ENDROOT
BRANCH   37   36
ATOM     33  C24 UNL A   1       6.299  -1.153  25.302  1.00  0.00    +0.000 C 
ATOM     34  C25 UNL A   1       5.777  -0.455  26.396  1.00  0.00    +0.000 C 
ATOM     35  C26 UNL A   1       6.126   0.883  26.600  1.00  0.00    +0.000 C 
ATOM     36  C27 UNL A   1       7.025   1.521  25.729  1.00  0.00    +0.000 C 
ATOM    135  H40 UNL A   1       8.193   1.275  23.984  1.00  0.00    +0.000 H 
ATOM    136  H41 UNL A   1       7.445  -0.987  23.536  1.00  0.00    +0.000 H 
ATOM    123  H28 UNL A   1       5.135  -0.927  27.051  1.00  0.00    +0.000 H 
ATOM    124  H29 UNL A   1       5.724   1.403  27.394  1.00  0.00    +0.000 H 
ATOM     94  C66 UNL A   1       7.526   0.817  24.625  1.00  0.00    +0.000 C 
ATOM     95  C67 UNL A   1       7.128  -0.498  24.387  1.00  0.00    +0.000 C 
BRANCH   33   31
ATOM     31  C23 UNL A   1       5.907  -2.569  25.104  1.00  0.00    +0.000 C 
ATOM     32  O3  UNL A   1       4.817  -2.834  24.616  1.00  0.00    +0.000 O 
BRANCH   31   30
ATOM    122  H27 UNL A   1       6.599  -3.992  26.335  1.00  0.00    +0.000 H 
ATOM     30  N4  UNL A   1       6.767  -3.581  25.457  1.00  0.00    +0.000 N 
BRANCH   30   29
ATOM    121  H26 UNL A   1       7.753  -3.888  23.680  1.00  0.00    +0.000 H 
ATOM     29  C22 UNL A   1       7.891  -4.129  24.713  1.00  0.00    +0.000 C 
ATOM    120  H25 UNL A   1       7.922  -5.187  24.863  1.00  0.00    +0.000 H 
BRANCH   29   28
ATOM     28  C21 UNL A   1       9.221  -3.528  25.165  1.00  0.00    +0.000 C 
ATOM    118  H23 UNL A   1       9.963  -4.297  25.126  1.00  0.00    +0.000 H 
ATOM    119  H24 UNL A   1       9.420  -2.710  24.504  1.00  0.00    +0.000 H 
BRANCH   28   27
ATOM     27  C20 UNL A   1       9.218  -2.940  26.583  1.00  0.00    +0.000 C 
ATOM    116  H21 UNL A   1       8.201  -2.863  26.905  1.00  0.00    +0.000 H 
ATOM    117  H22 UNL A   1       9.811  -3.603  27.177  1.00  0.00    +0.000 H 
BRANCH   27   26
ATOM     26  C19 UNL A   1       9.864  -1.556  26.727  1.00  0.00    +0.000 C 
ATOM    115  H20 UNL A   1       9.089  -0.889  27.043  1.00  0.00    +0.000 H 
ATOM    114  H19 UNL A   1      10.287  -1.285  25.782  1.00  0.00    +0.000 H 
BRANCH   26   25
ATOM     25  C18 UNL A   1      10.966  -1.481  27.787  1.00  0.00    +0.000 C 
ATOM    113  H18 UNL A   1      10.513  -1.741  28.721  1.00  0.00    +0.000 H 
ATOM    112  H17 UNL A   1      11.367  -0.489  27.783  1.00  0.00    +0.000 H 
BRANCH   25   24
ATOM    110  H15 UNL A   1      12.821  -2.385  28.371  1.00  0.00    +0.000 H 
ATOM    111  H16 UNL A   1      11.731  -3.464  27.524  1.00  0.00    +0.000 H 
ATOM     24  C17 UNL A   1      12.123  -2.469  27.563  1.00  0.00    +0.000 C 
BRANCH   24   23
ATOM    109  H14 UNL A   1      12.819  -2.900  25.649  1.00  0.00    +0.000 H 
ATOM     23  N3  UNL A   1      12.798  -2.175  26.315  1.00  0.00    +0.000 N 
BRANCH   23   21
ATOM     21  C16 UNL A   1      13.411  -0.995  25.954  1.00  0.00    +0.000 C 
ATOM     22  O2  UNL A   1      14.359  -0.588  26.624  1.00  0.00    +0.000 O 
BRANCH   21    2
ATOM      2  C2  UNL A   1      12.857  -0.056  24.894  1.00  0.00    +0.000 C 
BRANCH    2    1
ATOM      1  C1  UNL A   1      12.419   1.282  25.440  1.00  0.00    +0.000 C 
ATOM     98  H3  UNL A   1      11.953   1.142  26.393  1.00  0.00    +0.000 H 
ATOM     97  H2  UNL A   1      13.272   1.919  25.550  1.00  0.00    +0.000 H 
ATOM     96  H1  UNL A   1      11.721   1.732  24.765  1.00  0.00    +0.000 H 
ENDBRANCH    2    1
BRANCH    2    3
ATOM      3  N1  UNL A   1      12.783  -0.227  23.605  1.00  0.00    +0.000 N 
BRANCH    3    4
ATOM      4  O1  UNL A   1      13.118   0.904  22.871  1.00  0.00    +0.000 O 
BRANCH    4    5
ATOM     99  H4  UNL A   1      11.646   0.189  21.658  1.00  0.00    +0.000 H 
ATOM    100  H5  UNL A   1      12.892   1.250  20.908  1.00  0.00    +0.000 H 
ATOM      5  C3  UNL A   1      12.246   1.072  21.741  1.00  0.00    +0.000 C 
BRANCH    5    6
ATOM    101  H6  UNL A   1      10.655   1.937  23.770  1.00  0.00    +0.000 H 
ATOM      6  C4  UNL A   1      11.305   2.266  21.782  1.00  0.00    +0.000 C 
ATOM      7  C5  UNL A   1      10.523   2.511  22.923  1.00  0.00    +0.000 C 
ATOM      8  C6  UNL A   1       9.565   3.526  22.917  1.00  0.00    +0.000 C 
ATOM    102  H7  UNL A   1       9.009   3.717  23.765  1.00  0.00    +0.000 H 
ATOM     10  C8  UNL A   1      10.151   4.059  20.634  1.00  0.00    +0.000 C 
ATOM     11  C9  UNL A   1      11.177   3.108  20.652  1.00  0.00    +0.000 C 
ATOM    104  H9  UNL A   1       9.975   4.603  19.775  1.00  0.00    +0.000 H 
ATOM      9  C7  UNL A   1       9.362   4.281  21.765  1.00  0.00    +0.000 C 
ATOM    103  H8  UNL A   1       8.627   5.005  21.747  1.00  0.00    +0.000 H 
BRANCH   11   12
ATOM    105  H10 UNL A   1      12.941   2.567  19.772  1.00  0.00    +0.000 H 
ATOM     12  N2  UNL A   1      12.034   2.879  19.547  1.00  0.00    +0.000 N 
BRANCH   12   13
ATOM    106  H11 UNL A   1      10.456   1.257  15.608  1.00  0.00    +0.000 H 
ATOM    107  H12 UNL A   1      11.179   3.204  14.353  1.00  0.00    +0.000 H 
ATOM    108  H13 UNL A   1      12.327   5.012  15.490  1.00  0.00    +0.000 H 
ATOM     13  C10 UNL A   1      11.769   3.035  18.164  1.00  0.00    +0.000 C 
ATOM     14  C11 UNL A   1      11.144   1.976  17.470  1.00  0.00    +0.000 C 
ATOM     15 Cl1  UNL A   1      10.625   0.543  18.297  1.00  0.00    +0.000 Cl
ATOM     16  C12 UNL A   1      10.929   2.037  16.091  1.00  0.00    +0.000 C 
ATOM     17  C13 UNL A   1      11.351   3.149  15.369  1.00  0.00    +0.000 C 
ATOM     18  C14 UNL A   1      12.005   4.189  16.025  1.00  0.00    +0.000 C 
ATOM     19  C15 UNL A   1      12.232   4.127  17.406  1.00  0.00    +0.000 C 
ATOM     20 Cl2  UNL A   1      13.142   5.419  18.110  1.00  0.00    +0.000 Cl
ENDBRANCH   12   13
ENDBRANCH   11   12
ENDBRANCH    5    6
ENDBRANCH    4    5
ENDBRANCH    3    4
ENDBRANCH    2    3
ENDBRANCH   21    2
ENDBRANCH   23   21
ENDBRANCH   24   23
ENDBRANCH   25   24
ENDBRANCH   26   25
ENDBRANCH   27   26
ENDBRANCH   28   27
ENDBRANCH   29   28
ENDBRANCH   30   29
ENDBRANCH   31   30
ENDBRANCH   33   31
ENDBRANCH   37   36
BRANCH   41   42
ATOM     42  C32 UNL A   1      12.073   4.386  29.558  1.00  0.00    +0.000 C 
ATOM     43  C33 UNL A   1      13.208   3.769  29.011  1.00  0.00    +0.000 C 
ATOM     44  F1  UNL A   1      13.334   3.647  27.680  1.00  0.00    +0.000 F 
ATOM     45  C34 UNL A   1      14.201   3.239  29.831  1.00  0.00    +0.000 C 
ATOM     46  F2  UNL A   1      15.252   2.612  29.286  1.00  0.00    +0.000 F 
ATOM     47  C35 UNL A   1      14.096   3.347  31.209  1.00  0.00    +0.000 C 
ATOM     48  F3  UNL A   1      15.056   2.841  31.997  1.00  0.00    +0.000 F 
ATOM     49  C36 UNL A   1      12.994   3.972  31.771  1.00  0.00    +0.000 C 
ATOM     50  F4  UNL A   1      12.897   4.087  33.103  1.00  0.00    +0.000 F 
ATOM     51  C37 UNL A   1      11.985   4.478  30.955  1.00  0.00    +0.000 C 
ATOM     52  F5  UNL A   1      10.924   5.065  31.530  1.00  0.00    +0.000 F 
ENDBRANCH   41   42
BRANCH   58   59
ATOM     65  F8  UNL A   1      10.922  14.832  28.046  1.00  0.00    +0.000 F 
ATOM     66  C47 UNL A   1      11.267  12.737  27.009  1.00  0.00    +0.000 C 
ATOM     67  F9  UNL A   1      12.344  13.216  26.370  1.00  0.00    +0.000 F 
ATOM     68  C48 UNL A   1      10.868  11.419  26.808  1.00  0.00    +0.000 C 
ATOM     69  F10 UNL A   1      11.574  10.653  25.963  1.00  0.00    +0.000 F 
ATOM     59  C43 UNL A   1       9.757  10.891  27.482  1.00  0.00    +0.000 C 
ATOM     60  C44 UNL A   1       9.057  11.732  28.358  1.00  0.00    +0.000 C 
ATOM     61  F6  UNL A   1       7.977  11.277  29.013  1.00  0.00    +0.000 F 
ATOM     62  C45 UNL A   1       9.442  13.058  28.537  1.00  0.00    +0.000 C 
ATOM     63  F7  UNL A   1       8.732  13.857  29.346  1.00  0.00    +0.000 F 
ATOM     64  C46 UNL A   1      10.550  13.557  27.868  1.00  0.00    +0.000 C 
ENDBRANCH   58   59
BRANCH   73   74
ATOM     74  C52 UNL A   1       4.602   7.854  23.918  1.00  0.00    +0.000 C 
ATOM     75  C53 UNL A   1       4.730   8.015  22.531  1.00  0.00    +0.000 C 
ATOM     76  F11 UNL A   1       5.890   7.715  21.928  1.00  0.00    +0.000 F 
ATOM     77  C54 UNL A   1       3.682   8.517  21.764  1.00  0.00    +0.000 C 
ATOM     78  F12 UNL A   1       3.846   8.699  20.447  1.00  0.00    +0.000 F 
ATOM     79  C55 UNL A   1       2.476   8.845  22.365  1.00  0.00    +0.000 C 
ATOM     80  F13 UNL A   1       1.466   9.324  21.627  1.00  0.00    +0.000 F 
ATOM     81  C56 UNL A   1       2.319   8.679  23.733  1.00  0.00    +0.000 C 
ATOM     82  F14 UNL A   1       1.151   8.981  24.315  1.00  0.00    +0.000 F 
ATOM     83  C57 UNL A   1       3.376   8.200  24.505  1.00  0.00    +0.000 C 
ATOM     84  F15 UNL A   1       3.202   8.058  25.827  1.00  0.00    +0.000 F 
ENDBRANCH   73   74
TORSDOF 22
ENDMDL
MODEL 4
REMARK VINA RESULT:      -9.7     34.624     43.069
ROOT
ATOM    129  H34 UNL A   1      13.296  30.819  -3.728  1.00  0.00    +0.000 H 
ATOM    130  H35 UNL A   1       9.757  30.247  -1.624  1.00  0.00    +0.000 H 
ATOM    131  H36 UNL A   1       6.251  32.896  -4.064  1.00  0.00    +0.000 H 
ATOM    132  H37 UNL A   1       4.607  32.147  -2.250  1.00  0.00    +0.000 H 
ATOM    133  H38 UNL A   1      11.746  26.511   2.015  1.00  0.00    +0.000 H 
ATOM    134  H39 UNL A   1      13.502  27.595   0.501  1.00  0.00    +0.000 H 
ATOM     37  C28 UNL A   1      12.401  29.347  -1.458  1.00  0.00    +0.000 C 
ATOM     38  C29 UNL A   1      11.677  28.647  -0.341  1.00  0.00    +0.000 C 
ATOM     39  N5  UNL A   1      10.408  28.686  -0.023  1.00  0.00    +0.000 N 
ATOM     40  C30 UNL A   1      10.262  27.823   1.055  1.00  0.00    +0.000 C 
ATOM     41  C31 UNL A   1       9.148  27.557   1.779  1.00  0.00    +0.000 C 
ATOM     53  C38 UNL A   1       7.864  28.162   1.543  1.00  0.00    +0.000 C 
ATOM     54  C39 UNL A   1       6.690  28.006   2.261  1.00  0.00    +0.000 C 
ATOM     55  C40 UNL A   1       5.692  28.763   1.638  1.00  0.00    +0.000 C 
ATOM     56  C41 UNL A   1       6.254  29.425   0.558  1.00  0.00    +0.000 C 
ATOM     57  N6  UNL A   1       7.586  29.043   0.508  1.00  0.00    +0.000 N 
ATOM     58  C42 UNL A   1       5.625  30.337  -0.361  1.00  0.00    +0.000 C 
ATOM     70  C49 UNL A   1       6.248  30.953  -1.396  1.00  0.00    +0.000 C 
ATOM     71  N7  UNL A   1       7.575  30.865  -1.793  1.00  0.00    +0.000 N 
ATOM     72  C50 UNL A   1       7.687  31.633  -2.848  1.00  0.00    +0.000 C 
ATOM     73  C51 UNL A   1       8.907  31.938  -3.675  1.00  0.00    +0.000 C 
ATOM     85  C58 UNL A   1      10.091  31.398  -3.326  1.00  0.00    +0.000 C 
ATOM     86  C59 UNL A   1      11.355  31.607  -4.025  1.00  0.00    +0.000 C 
ATOM     87  C60 UNL A   1      12.311  30.876  -3.428  1.00  0.00    +0.000 C 
ATOM     88  C61 UNL A   1      11.731  30.174  -2.282  1.00  0.00    +0.000 C 
ATOM     89  N8  UNL A   1      10.411  30.553  -2.293  1.00  0.00    +0.000 N 
ATOM     90  C62 UNL A   1       6.432  32.279  -3.257  1.00  0.00    +0.000 C 
ATOM     91  C63 UNL A   1       5.596  31.862  -2.317  1.00  0.00    +0.000 C 
ATOM     92  C64 UNL A   1      11.561  27.240   1.308  1.00  0.00    +0.000 C 
ATOM     93  C65 UNL A   1      12.484  27.764   0.515  1.00  0.00    +0.000 C 
ATOM    125  H30 UNL A   1       6.572  27.430   3.109  1.00  0.00    +0.000 H 
ATOM    126  H31 UNL A   1       4.705  28.820   1.933  1.00  0.00    +0.000 H 
ATOM    127  H32 UNL A   1       8.237  29.351  -0.162  1.00  0.00    +0.000 H 
ATOM    128  H33 UNL A   1      11.492  32.216  -4.846  1.00  0.00    +0.000 H 
ENDROOT
BRANCH   37   36
ATOM     33  C24 UNL A   1      16.544  28.555  -2.230  1.00  0.00    +0.000 C 
ATOM     34  C25 UNL A   1      16.177  29.726  -1.559  1.00  0.00    +0.000 C 
ATOM     35  C26 UNL A   1      14.831  29.978  -1.281  1.00  0.00    +0.000 C 
ATOM     36  C27 UNL A   1      13.840  29.075  -1.702  1.00  0.00    +0.000 C 
ATOM    135  H40 UNL A   1      13.500  27.230  -2.677  1.00  0.00    +0.000 H 
ATOM    136  H41 UNL A   1      15.847  26.715  -2.997  1.00  0.00    +0.000 H 
ATOM    123  H28 UNL A   1      16.900  30.403  -1.268  1.00  0.00    +0.000 H 
ATOM    124  H29 UNL A   1      14.564  30.830  -0.767  1.00  0.00    +0.000 H 
ATOM     94  C66 UNL A   1      14.221  27.895  -2.356  1.00  0.00    +0.000 C 
ATOM     95  C67 UNL A   1      15.569  27.615  -2.577  1.00  0.00    +0.000 C 
BRANCH   33   31
ATOM     31  C23 UNL A   1      17.979  28.308  -2.505  1.00  0.00    +0.000 C 
ATOM     32  O3  UNL A   1      18.461  27.208  -2.273  1.00  0.00    +0.000 O 
BRANCH   31   30
ATOM    122  H27 UNL A   1      18.467  29.669  -3.895  1.00  0.00    +0.000 H 
ATOM     30  N4  UNL A   1      18.765  29.307  -3.029  1.00  0.00    +0.000 N 
BRANCH   30   29
ATOM    121  H26 UNL A   1      20.172  29.442  -1.537  1.00  0.00    +0.000 H 
ATOM     29  C22 UNL A   1      19.975  29.901  -2.484  1.00  0.00    +0.000 C 
ATOM    120  H25 UNL A   1      19.825  30.955  -2.378  1.00  0.00    +0.000 H 
BRANCH   29   28
ATOM     28  C21 UNL A   1      21.185  29.662  -3.385  1.00  0.00    +0.000 C 
ATOM    118  H23 UNL A   1      20.851  29.137  -4.256  1.00  0.00    +0.000 H 
ATOM    119  H24 UNL A   1      21.592  30.628  -3.601  1.00  0.00    +0.000 H 
BRANCH   28   27
ATOM     27  C20 UNL A   1      22.320  28.852  -2.746  1.00  0.00    +0.000 C 
ATOM    116  H21 UNL A   1      22.517  28.009  -3.374  1.00  0.00    +0.000 H 
ATOM    117  H22 UNL A   1      23.146  29.526  -2.655  1.00  0.00    +0.000 H 
BRANCH   27   26
ATOM     26  C19 UNL A   1      22.045  28.331  -1.330  1.00  0.00    +0.000 C 
ATOM    115  H20 UNL A   1      21.896  27.275  -1.416  1.00  0.00    +0.000 H 
ATOM    114  H19 UNL A   1      21.187  28.843  -0.946  1.00  0.00    +0.000 H 
BRANCH   26   25
ATOM     25  C18 UNL A   1      23.202  28.531  -0.347  1.00  0.00    +0.000 C 
ATOM    113  H18 UNL A   1      24.106  28.398  -0.905  1.00  0.00    +0.000 H 
ATOM    112  H17 UNL A   1      23.095  27.821   0.445  1.00  0.00    +0.000 H 
BRANCH   25   24
ATOM    110  H15 UNL A   1      24.287  30.191   0.471  1.00  0.00    +0.000 H 
ATOM    111  H16 UNL A   1      22.844  30.642  -0.414  1.00  0.00    +0.000 H 
ATOM     24  C17 UNL A   1      23.266  29.938   0.273  1.00  0.00    +0.000 C 
BRANCH   24   23
ATOM    109  H14 UNL A   1      22.890  30.526   2.234  1.00  0.00    +0.000 H 
ATOM     23  N3  UNL A   1      22.514  29.973   1.511  1.00  0.00    +0.000 N 
BRANCH   23   21
ATOM     21  C16 UNL A   1      21.333  29.321   1.791  1.00  0.00    +0.000 C 
ATOM     22  O2  UNL A   1      21.377  28.198   2.290  1.00  0.00    +0.000 O 
BRANCH   21    2
ATOM      2  C2  UNL A   1      19.973  29.823   1.332  1.00  0.00    +0.000 C 
BRANCH    2    1
ATOM      1  C1  UNL A   1      19.054  28.725   0.851  1.00  0.00    +0.000 C 
ATOM     98  H3  UNL A   1      18.038  29.051   0.932  1.00  0.00    +0.000 H 
ATOM     97  H2  UNL A   1      19.276  28.497  -0.171  1.00  0.00    +0.000 H 
ATOM     96  H1  UNL A   1      19.197  27.851   1.451  1.00  0.00    +0.000 H 
ENDBRANCH    2    1
BRANCH    2    3
ATOM      3  N1  UNL A   1      19.491  31.032   1.368  1.00  0.00    +0.000 N 
BRANCH    3    4
ATOM      4  O1  UNL A   1      18.248  31.119   1.986  1.00  0.00    +0.000 O 
BRANCH    4    5
ATOM     99  H4  UNL A   1      16.521  31.212   0.911  1.00  0.00    +0.000 H 
ATOM    100  H5  UNL A   1      17.890  32.247   0.366  1.00  0.00    +0.000 H 
ATOM      5  C3  UNL A   1      17.318  31.870   1.188  1.00  0.00    +0.000 C 
BRANCH    5    6
ATOM    101  H6  UNL A   1      18.526  33.868   2.583  1.00  0.00    +0.000 H 
ATOM      6  C4  UNL A   1      16.699  33.095   1.843  1.00  0.00    +0.000 C 
ATOM      7  C5  UNL A   1      17.501  33.989   2.572  1.00  0.00    +0.000 C 
ATOM      8  C6  UNL A   1      16.920  35.040   3.282  1.00  0.00    +0.000 C 
ATOM    102  H7  UNL A   1      17.515  35.708   3.797  1.00  0.00    +0.000 H 
ATOM     10  C8  UNL A   1      14.733  34.316   2.554  1.00  0.00    +0.000 C 
ATOM     11  C9  UNL A   1      15.304  33.313   1.764  1.00  0.00    +0.000 C 
ATOM    104  H9  UNL A   1      13.706  34.414   2.591  1.00  0.00    +0.000 H 
ATOM      9  C7  UNL A   1      15.536  35.187   3.294  1.00  0.00    +0.000 C 
ATOM    103  H8  UNL A   1      15.103  35.940   3.851  1.00  0.00    +0.000 H 
BRANCH   11   12
ATOM    105  H10 UNL A   1      15.040  31.718   0.513  1.00  0.00    +0.000 H 
ATOM     12  N2  UNL A   1      14.535  32.435   0.959  1.00  0.00    +0.000 N 
BRANCH   12   13
ATOM    106  H11 UNL A   1      10.938  33.964  -1.358  1.00  0.00    +0.000 H 
ATOM    107  H12 UNL A   1       9.353  32.763   0.033  1.00  0.00    +0.000 H 
ATOM    108  H13 UNL A   1      10.153  31.415   1.883  1.00  0.00    +0.000 H 
ATOM     13  C10 UNL A   1      13.141  32.445   0.707  1.00  0.00    +0.000 C 
ATOM     14  C11 UNL A   1      12.646  33.259  -0.335  1.00  0.00    +0.000 C 
ATOM     15 Cl1  UNL A   1      13.718  34.166  -1.352  1.00  0.00    +0.000 Cl
ATOM     16  C12 UNL A   1      11.275  33.374  -0.580  1.00  0.00    +0.000 C 
ATOM     17  C13 UNL A   1      10.365  32.693   0.222  1.00  0.00    +0.000 C 
ATOM     18  C14 UNL A   1      10.827  31.915   1.281  1.00  0.00    +0.000 C 
ATOM     19  C15 UNL A   1      12.200  31.806   1.536  1.00  0.00    +0.000 C 
ATOM     20 Cl2  UNL A   1      12.668  30.899   2.934  1.00  0.00    +0.000 Cl
ENDBRANCH   12   13
ENDBRANCH   11   12
ENDBRANCH    5    6
ENDBRANCH    4    5
ENDBRANCH    3    4
ENDBRANCH    2    3
ENDBRANCH   21    2
ENDBRANCH   23   21
ENDBRANCH   24   23
ENDBRANCH   25   24
ENDBRANCH   26   25
ENDBRANCH   27   26
ENDBRANCH   28   27
ENDBRANCH   29   28
ENDBRANCH   30   29
ENDBRANCH   31   30
ENDBRANCH   33   31
ENDBRANCH   37   36
BRANCH   41   42
ATOM     42  C32 UNL A   1       9.271  26.567   2.902  1.00  0.00    +0.000 C 
ATOM     43  C33 UNL A   1       8.928  25.218   2.730  1.00  0.00    +0.000 C 
ATOM     44  F1  UNL A   1       8.436  24.790   1.558  1.00  0.00    +0.000 F 
ATOM     45  C34 UNL A   1       9.055  24.308   3.777  1.00  0.00    +0.000 C 
ATOM     46  F2  UNL A   1       8.677  23.034   3.604  1.00  0.00    +0.000 F 
ATOM     47  C35 UNL A   1       9.558  24.722   5.002  1.00  0.00    +0.000 C 
ATOM     48  F3  UNL A   1       9.684  23.842   6.006  1.00  0.00    +0.000 F 
ATOM     49  C36 UNL A   1       9.922  26.046   5.187  1.00  0.00    +0.000 C 
ATOM     50  F4  UNL A   1      10.420  26.444   6.366  1.00  0.00    +0.000 F 
ATOM     51  C37 UNL A   1       9.771  26.964   4.150  1.00  0.00    +0.000 C 
ATOM     52  F5  UNL A   1      10.120  28.242   4.365  1.00  0.00    +0.000 F 
ENDBRANCH   41   42
BRANCH   58   59
ATOM     65  F8  UNL A   1       0.177  31.531   0.527  1.00  0.00    +0.000 F 
ATOM     66  C47 UNL A   1       2.443  32.196   0.579  1.00  0.00    +0.000 C 
ATOM     67  F9  UNL A   1       2.094  33.395   1.065  1.00  0.00    +0.000 F 
ATOM     68  C48 UNL A   1       3.783  31.906   0.338  1.00  0.00    +0.000 C 
ATOM     69  F10 UNL A   1       4.703  32.849   0.593  1.00  0.00    +0.000 F 
ATOM     59  C43 UNL A   1       4.173  30.651  -0.151  1.00  0.00    +0.000 C 
ATOM     60  C44 UNL A   1       3.173  29.699  -0.396  1.00  0.00    +0.000 C 
ATOM     61  F6  UNL A   1       3.496  28.489  -0.880  1.00  0.00    +0.000 F 
ATOM     62  C45 UNL A   1       1.831  30.001  -0.179  1.00  0.00    +0.000 C 
ATOM     63  F7  UNL A   1       0.888  29.091  -0.462  1.00  0.00    +0.000 F 
ATOM     64  C46 UNL A   1       1.468  31.245   0.314  1.00  0.00    +0.000 C 
ENDBRANCH   58   59
BRANCH   73   74
ATOM     74  C52 UNL A   1       8.825  32.849  -4.844  1.00  0.00    +0.000 C 
ATOM     75  C53 UNL A   1       8.688  34.232  -4.668  1.00  0.00    +0.000 C 
ATOM     76  F11 UNL A   1       8.605  34.743  -3.430  1.00  0.00    +0.000 F 
ATOM     77  C54 UNL A   1       8.599  35.093  -5.759  1.00  0.00    +0.000 C 
ATOM     78  F12 UNL A   1       8.426  36.406  -5.561  1.00  0.00    +0.000 F 
ATOM     79  C55 UNL A   1       8.671  34.589  -7.049  1.00  0.00    +0.000 C 
ATOM     80  F13 UNL A   1       8.589  35.417  -8.098  1.00  0.00    +0.000 F 
ATOM     81  C56 UNL A   1       8.823  33.225  -7.249  1.00  0.00    +0.000 C 
ATOM     82  F14 UNL A   1       8.907  32.736  -8.494  1.00  0.00    +0.000 F 
ATOM     83  C57 UNL A   1       8.888  32.361  -6.158  1.00  0.00    +0.000 C 
ATOM     84  F15 UNL A   1       9.025  31.045  -6.379  1.00  0.00    +0.000 F 
ENDBRANCH   73   74
TORSDOF 22
ENDMDL
MODEL 5
REMARK VINA RESULT:      -9.6     33.803     40.023
ROOT
ATOM    129  H34 UNL A   1       5.084   2.884  24.370  1.00  0.00    +0.000 H 
ATOM    130  H35 UNL A   1       7.592   5.747  26.041  1.00  0.00    +0.000 H 
ATOM    131  H36 UNL A   1       5.659  10.204  24.751  1.00  0.00    +0.000 H 
ATOM    132  H37 UNL A   1       7.643  11.272  25.966  1.00  0.00    +0.000 H 
ATOM    133  H38 UNL A   1      10.876   2.204  28.837  1.00  0.00    +0.000 H 
ATOM    134  H39 UNL A   1       9.183   1.105  27.262  1.00  0.00    +0.000 H 
ATOM     37  C28 UNL A   1       7.413   2.956  26.012  1.00  0.00    +0.000 C 
ATOM     38  C29 UNL A   1       8.594   3.264  26.890  1.00  0.00    +0.000 C 
ATOM     39  N5  UNL A   1       9.066   4.425  27.267  1.00  0.00    +0.000 N 
ATOM     40  C30 UNL A   1      10.134   4.144  28.109  1.00  0.00    +0.000 C 
ATOM     41  C31 UNL A   1      10.983   5.009  28.715  1.00  0.00    +0.000 C 
ATOM     53  C38 UNL A   1      10.919   6.440  28.574  1.00  0.00    +0.000 C 
ATOM     54  C39 UNL A   1      11.771   7.398  29.096  1.00  0.00    +0.000 C 
ATOM     55  C40 UNL A   1      11.292   8.659  28.724  1.00  0.00    +0.000 C 
ATOM     56  C41 UNL A   1      10.166   8.485  27.934  1.00  0.00    +0.000 C 
ATOM     57  N6  UNL A   1       9.946   7.119  27.855  1.00  0.00    +0.000 N 
ATOM     58  C42 UNL A   1       9.352   9.489  27.300  1.00  0.00    +0.000 C 
ATOM     70  C49 UNL A   1       8.263   9.237  26.533  1.00  0.00    +0.000 C 
ATOM     71  N7  UNL A   1       7.705   8.015  26.185  1.00  0.00    +0.000 N 
ATOM     72  C50 UNL A   1       6.662   8.293  25.442  1.00  0.00    +0.000 C 
ATOM     73  C51 UNL A   1       5.699   7.354  24.768  1.00  0.00    +0.000 C 
ATOM     85  C58 UNL A   1       5.888   6.025  24.878  1.00  0.00    +0.000 C 
ATOM     86  C59 UNL A   1       5.044   4.997  24.276  1.00  0.00    +0.000 C 
ATOM     87  C60 UNL A   1       5.504   3.788  24.638  1.00  0.00    +0.000 C 
ATOM     88  C61 UNL A   1       6.696   3.957  25.469  1.00  0.00    +0.000 C 
ATOM     89  N8  UNL A   1       6.855   5.319  25.549  1.00  0.00    +0.000 N 
ATOM     90  C62 UNL A   1       6.424   9.731  25.257  1.00  0.00    +0.000 C 
ATOM     91  C63 UNL A   1       7.449  10.260  25.909  1.00  0.00    +0.000 C 
ATOM     92  C64 UNL A   1      10.213   2.704  28.224  1.00  0.00    +0.000 C 
ATOM     93  C65 UNL A   1       9.325   2.112  27.440  1.00  0.00    +0.000 C 
ATOM    125  H30 UNL A   1      12.614   7.215  29.662  1.00  0.00    +0.000 H 
ATOM    126  H31 UNL A   1      11.707   9.566  28.991  1.00  0.00    +0.000 H 
ATOM    127  H32 UNL A   1       9.208   6.694  27.361  1.00  0.00    +0.000 H 
ATOM    128  H33 UNL A   1       4.227   5.171  23.672  1.00  0.00    +0.000 H 
ENDROOT
BRANCH   37   36
ATOM     33  C24 UNL A   1       6.257  -1.126  25.389  1.00  0.00    +0.000 C 
ATOM     34  C25 UNL A   1       5.723  -0.413  26.467  1.00  0.00    +0.000 C 
ATOM     35  C26 UNL A   1       6.076   0.925  26.661  1.00  0.00    +0.000 C 
ATOM     36  C27 UNL A   1       6.989   1.549  25.796  1.00  0.00    +0.000 C 
ATOM    135  H40 UNL A   1       8.181   1.278  24.070  1.00  0.00    +0.000 H 
ATOM    136  H41 UNL A   1       7.429  -0.986  23.638  1.00  0.00    +0.000 H 
ATOM    123  H28 UNL A   1       5.070  -0.875  27.119  1.00  0.00    +0.000 H 
ATOM    124  H29 UNL A   1       5.665   1.456  27.444  1.00  0.00    +0.000 H 
ATOM     94  C66 UNL A   1       7.502   0.830  24.707  1.00  0.00    +0.000 C 
ATOM     95  C67 UNL A   1       7.102  -0.485  24.479  1.00  0.00    +0.000 C 
BRANCH   33   31
ATOM     31  C23 UNL A   1       5.861  -2.542  25.202  1.00  0.00    +0.000 C 
ATOM     32  O3  UNL A   1       4.712  -2.814  24.885  1.00  0.00    +0.000 O 
BRANCH   31   30
ATOM    122  H27 UNL A   1       6.732  -4.027  26.231  1.00  0.00    +0.000 H 
ATOM     30  N4  UNL A   1       6.784  -3.547  25.373  1.00  0.00    +0.000 N 
BRANCH   30   29
ATOM    121  H26 UNL A   1       7.700  -3.483  23.535  1.00  0.00    +0.000 H 
ATOM     29  C22 UNL A   1       7.825  -3.999  24.464  1.00  0.00    +0.000 C 
ATOM    120  H25 UNL A   1       7.734  -5.057  24.333  1.00  0.00    +0.000 H 
BRANCH   29   28
ATOM     28  C21 UNL A   1       9.222  -3.685  24.995  1.00  0.00    +0.000 C 
ATOM    118  H23 UNL A   1       9.782  -4.597  25.017  1.00  0.00    +0.000 H 
ATOM    119  H24 UNL A   1       9.634  -2.949  24.337  1.00  0.00    +0.000 H 
BRANCH   28   27
ATOM     27  C20 UNL A   1       9.258  -3.071  26.401  1.00  0.00    +0.000 C 
ATOM    116  H21 UNL A   1       8.254  -3.032  26.769  1.00  0.00    +0.000 H 
ATOM    117  H22 UNL A   1       9.906  -3.696  26.978  1.00  0.00    +0.000 H 
BRANCH   27   26
ATOM     26  C19 UNL A   1       9.847  -1.658  26.491  1.00  0.00    +0.000 C 
ATOM    115  H20 UNL A   1       9.042  -1.008  26.762  1.00  0.00    +0.000 H 
ATOM    114  H19 UNL A   1      10.277  -1.414  25.541  1.00  0.00    +0.000 H 
BRANCH   26   25
ATOM     25  C18 UNL A   1      10.927  -1.490  27.563  1.00  0.00    +0.000 C 
ATOM    113  H18 UNL A   1      10.461  -1.699  28.504  1.00  0.00    +0.000 H 
ATOM    112  H17 UNL A   1      11.307  -0.492  27.502  1.00  0.00    +0.000 H 
BRANCH   25   24
ATOM    110  H15 UNL A   1      12.647  -2.501  28.351  1.00  0.00    +0.000 H 
ATOM    111  H16 UNL A   1      11.732  -3.439  27.188  1.00  0.00    +0.000 H 
ATOM     24  C17 UNL A   1      12.108  -2.466  27.426  1.00  0.00    +0.000 C 
BRANCH   24   23
ATOM    109  H14 UNL A   1      13.293  -2.721  25.734  1.00  0.00    +0.000 H 
ATOM     23  N3  UNL A   1      12.997  -2.029  26.369  1.00  0.00    +0.000 N 
BRANCH   23   21
ATOM     21  C16 UNL A   1      13.474  -0.754  26.151  1.00  0.00    +0.000 C 
ATOM     22  O2  UNL A   1      14.181  -0.229  27.010  1.00  0.00    +0.000 O 
BRANCH   21    2
ATOM      2  C2  UNL A   1      13.013   0.125  25.000  1.00  0.00    +0.000 C 
BRANCH    2    1
ATOM      1  C1  UNL A   1      12.140   1.279  25.432  1.00  0.00    +0.000 C 
ATOM     98  H3  UNL A   1      12.744   2.153  25.559  1.00  0.00    +0.000 H 
ATOM     97  H2  UNL A   1      11.397   1.463  24.684  1.00  0.00    +0.000 H 
ATOM     96  H1  UNL A   1      11.663   1.038  26.359  1.00  0.00    +0.000 H 
ENDBRANCH    2    1
BRANCH    2    3
ATOM      3  N1  UNL A   1      13.324   0.052  23.737  1.00  0.00    +0.000 N 
BRANCH    3    4
ATOM      4  O1  UNL A   1      13.473   1.292  23.127  1.00  0.00    +0.000 O 
BRANCH    4    5
ATOM     99  H4  UNL A   1      13.212   0.342  21.345  1.00  0.00    +0.000 H 
ATOM    100  H5  UNL A   1      13.390   2.133  21.307  1.00  0.00    +0.000 H 
ATOM      5  C3  UNL A   1      12.954   1.282  21.786  1.00  0.00    +0.000 C 
BRANCH    5    6
ATOM    101  H6  UNL A   1      11.425   3.461  22.343  1.00  0.00    +0.000 H 
ATOM      6  C4  UNL A   1      11.452   1.464  21.641  1.00  0.00    +0.000 C 
ATOM      7  C5  UNL A   1      10.842   2.666  22.040  1.00  0.00    +0.000 C 
ATOM      8  C6  UNL A   1       9.452   2.789  22.030  1.00  0.00    +0.000 C 
ATOM    102  H7  UNL A   1       9.011   3.681  22.302  1.00  0.00    +0.000 H 
ATOM     10  C8  UNL A   1       9.261   0.516  21.233  1.00  0.00    +0.000 C 
ATOM     11  C9  UNL A   1      10.653   0.405  21.150  1.00  0.00    +0.000 C 
ATOM    104  H9  UNL A   1       8.669  -0.291  20.982  1.00  0.00    +0.000 H 
ATOM      9  C7  UNL A   1       8.663   1.706  21.652  1.00  0.00    +0.000 C 
ATOM    103  H8  UNL A   1       7.635   1.784  21.683  1.00  0.00    +0.000 H 
BRANCH   11   12
ATOM    105  H10 UNL A   1      12.260  -0.659  20.467  1.00  0.00    +0.000 H 
ATOM     12  N2  UNL A   1      11.306  -0.765  20.686  1.00  0.00    +0.000 N 
BRANCH   12   13
ATOM    106  H11 UNL A   1      10.829  -5.083  22.015  1.00  0.00    +0.000 H 
ATOM    107  H12 UNL A   1       9.608  -5.713  20.015  1.00  0.00    +0.000 H 
ATOM    108  H13 UNL A   1       9.181  -4.060  18.293  1.00  0.00    +0.000 H 
ATOM     13  C10 UNL A   1      10.778  -2.065  20.494  1.00  0.00    +0.000 C 
ATOM     14  C11 UNL A   1      11.053  -3.058  21.460  1.00  0.00    +0.000 C 
ATOM     15 Cl1  UNL A   1      11.942  -2.686  22.901  1.00  0.00    +0.000 Cl
ATOM     16  C12 UNL A   1      10.628  -4.378  21.288  1.00  0.00    +0.000 C 
ATOM     17  C13 UNL A   1       9.936  -4.743  20.137  1.00  0.00    +0.000 C 
ATOM     18  C14 UNL A   1       9.687  -3.790  19.152  1.00  0.00    +0.000 C 
ATOM     19  C15 UNL A   1      10.120  -2.468  19.317  1.00  0.00    +0.000 C 
ATOM     20 Cl2  UNL A   1       9.853  -1.385  17.994  1.00  0.00    +0.000 Cl
ENDBRANCH   12   13
ENDBRANCH   11   12
ENDBRANCH    5    6
ENDBRANCH    4    5
ENDBRANCH    3    4
ENDBRANCH    2    3
ENDBRANCH   21    2
ENDBRANCH   23   21
ENDBRANCH   24   23
ENDBRANCH   25   24
ENDBRANCH   26   25
ENDBRANCH   27   26
ENDBRANCH   28   27
ENDBRANCH   29   28
ENDBRANCH   30   29
ENDBRANCH   31   30
ENDBRANCH   33   31
ENDBRANCH   37   36
BRANCH   41   42
ATOM     42  C32 UNL A   1      12.059   4.429  29.586  1.00  0.00    +0.000 C 
ATOM     43  C33 UNL A   1      13.181   3.790  29.037  1.00  0.00    +0.000 C 
ATOM     44  F1  UNL A   1      13.292   3.643  27.708  1.00  0.00    +0.000 F 
ATOM     45  C34 UNL A   1      14.177   3.263  29.856  1.00  0.00    +0.000 C 
ATOM     46  F2  UNL A   1      15.216   2.615  29.311  1.00  0.00    +0.000 F 
ATOM     47  C35 UNL A   1      14.088   3.396  31.233  1.00  0.00    +0.000 C 
ATOM     48  F3  UNL A   1      15.051   2.894  32.019  1.00  0.00    +0.000 F 
ATOM     49  C36 UNL A   1      12.999   4.043  31.796  1.00  0.00    +0.000 C 
ATOM     50  F4  UNL A   1      12.919   4.183  33.126  1.00  0.00    +0.000 F 
ATOM     51  C37 UNL A   1      11.987   4.547  30.981  1.00  0.00    +0.000 C 
ATOM     52  F5  UNL A   1      10.939   5.155  31.557  1.00  0.00    +0.000 F 
ENDBRANCH   41   42
BRANCH   58   59
ATOM     65  F8  UNL A   1      10.920  14.867  28.015  1.00  0.00    +0.000 F 
ATOM     66  C47 UNL A   1      11.246  12.770  26.977  1.00  0.00    +0.000 C 
ATOM     67  F9  UNL A   1      12.312  13.247  26.319  1.00  0.00    +0.000 F 
ATOM     68  C48 UNL A   1      10.844  11.452  26.787  1.00  0.00    +0.000 C 
ATOM     69  F10 UNL A   1      11.535  10.684  25.931  1.00  0.00    +0.000 F 
ATOM     59  C43 UNL A   1       9.745  10.925  27.481  1.00  0.00    +0.000 C 
ATOM     60  C44 UNL A   1       9.060  11.768  28.368  1.00  0.00    +0.000 C 
ATOM     61  F6  UNL A   1       7.992  11.314  29.042  1.00  0.00    +0.000 F 
ATOM     62  C45 UNL A   1       9.449  13.094  28.536  1.00  0.00    +0.000 C 
ATOM     63  F7  UNL A   1       8.753  13.895  29.355  1.00  0.00    +0.000 F 
ATOM     64  C46 UNL A   1      10.544  13.592  27.847  1.00  0.00    +0.000 C 
ENDBRANCH   58   59
BRANCH   73   74
ATOM     74  C52 UNL A   1       4.569   7.875  23.958  1.00  0.00    +0.000 C 
ATOM     75  C53 UNL A   1       4.688   8.020  22.569  1.00  0.00    +0.000 C 
ATOM     76  F11 UNL A   1       5.843   7.707  21.961  1.00  0.00    +0.000 F 
ATOM     77  C54 UNL A   1       3.638   8.520  21.803  1.00  0.00    +0.000 C 
ATOM     78  F12 UNL A   1       3.794   8.686  20.483  1.00  0.00    +0.000 F 
ATOM     79  C55 UNL A   1       2.438   8.861  22.409  1.00  0.00    +0.000 C 
ATOM     80  F13 UNL A   1       1.426   9.337  21.672  1.00  0.00    +0.000 F 
ATOM     81  C56 UNL A   1       2.290   8.712  23.780  1.00  0.00    +0.000 C 
ATOM     82  F14 UNL A   1       1.127   9.027  24.366  1.00  0.00    +0.000 F 
ATOM     83  C57 UNL A   1       3.349   8.235  24.549  1.00  0.00    +0.000 C 
ATOM     84  F15 UNL A   1       3.183   8.110  25.874  1.00  0.00    +0.000 F 
ENDBRANCH   73   74
TORSDOF 22
ENDMDL
MODEL 6
REMARK VINA RESULT:      -9.6     22.170     27.359
ROOT
ATOM    129  H34 UNL A   1      23.536  35.695  47.102  1.00  0.00    +0.000 H 
ATOM    130  H35 UNL A   1      27.191  37.570  46.461  1.00  0.00    +0.000 H 
ATOM    131  H36 UNL A   1      27.321  41.469  49.632  1.00  0.00    +0.000 H 
ATOM    132  H37 UNL A   1      29.598  42.051  48.617  1.00  0.00    +0.000 H 
ATOM    133  H38 UNL A   1      29.227  33.837  42.845  1.00  0.00    +0.000 H 
ATOM    134  H39 UNL A   1      26.777  33.491  43.501  1.00  0.00    +0.000 H 
ATOM     37  C28 UNL A   1      25.855  35.312  45.491  1.00  0.00    +0.000 C 
ATOM     38  C29 UNL A   1      27.188  35.309  44.794  1.00  0.00    +0.000 C 
ATOM     39  N5  UNL A   1      28.201  36.126  44.939  1.00  0.00    +0.000 N 
ATOM     40  C30 UNL A   1      29.195  35.648  44.096  1.00  0.00    +0.000 C 
ATOM     41  C31 UNL A   1      30.418  36.177  43.848  1.00  0.00    +0.000 C 
ATOM     53  C38 UNL A   1      30.913  37.390  44.443  1.00  0.00    +0.000 C 
ATOM     54  C39 UNL A   1      32.112  38.041  44.208  1.00  0.00    +0.000 C 
ATOM     55  C40 UNL A   1      32.172  39.162  45.044  1.00  0.00    +0.000 C 
ATOM     56  C41 UNL A   1      30.993  39.233  45.768  1.00  0.00    +0.000 C 
ATOM     57  N6  UNL A   1      30.232  38.137  45.393  1.00  0.00    +0.000 N 
ATOM     58  C42 UNL A   1      30.589  40.226  46.729  1.00  0.00    +0.000 C 
ATOM     70  C49 UNL A   1      29.409  40.230  47.395  1.00  0.00    +0.000 C 
ATOM     71  N7  UNL A   1      28.355  39.330  47.309  1.00  0.00    +0.000 N 
ATOM     72  C50 UNL A   1      27.448  39.755  48.154  1.00  0.00    +0.000 C 
ATOM     73  C51 UNL A   1      26.090  39.182  48.456  1.00  0.00    +0.000 C 
ATOM     85  C58 UNL A   1      25.669  38.094  47.783  1.00  0.00    +0.000 C 
ATOM     86  C59 UNL A   1      24.380  37.434  47.962  1.00  0.00    +0.000 C 
ATOM     87  C60 UNL A   1      24.326  36.356  47.162  1.00  0.00    +0.000 C 
ATOM     88  C61 UNL A   1      25.565  36.271  46.389  1.00  0.00    +0.000 C 
ATOM     89  N8  UNL A   1      26.298  37.350  46.815  1.00  0.00    +0.000 N 
ATOM     90  C62 UNL A   1      27.837  40.963  48.894  1.00  0.00    +0.000 C 
ATOM     91  C63 UNL A   1      29.023  41.232  48.367  1.00  0.00    +0.000 C 
ATOM     92  C64 UNL A   1      28.683  34.446  43.477  1.00  0.00    +0.000 C 
ATOM     93  C65 UNL A   1      27.423  34.228  43.825  1.00  0.00    +0.000 C 
ATOM    125  H30 UNL A   1      32.836  37.750  43.534  1.00  0.00    +0.000 H 
ATOM    126  H31 UNL A   1      32.962  39.824  45.109  1.00  0.00    +0.000 H 
ATOM    127  H32 UNL A   1      29.339  37.921  45.749  1.00  0.00    +0.000 H 
ATOM    128  H33 UNL A   1      23.632  37.744  48.600  1.00  0.00    +0.000 H 
ENDROOT
BRANCH   37   36
ATOM     33  C24 UNL A   1      23.020  32.160  44.845  1.00  0.00    +0.000 C 
ATOM     34  C25 UNL A   1      23.062  33.243  43.962  1.00  0.00    +0.000 C 
ATOM     35  C26 UNL A   1      24.001  34.261  44.152  1.00  0.00    +0.000 C 
ATOM     36  C27 UNL A   1      24.882  34.218  45.245  1.00  0.00    +0.000 C 
ATOM    135  H40 UNL A   1      25.481  33.080  46.924  1.00  0.00    +0.000 H 
ATOM    136  H41 UNL A   1      23.972  31.234  46.487  1.00  0.00    +0.000 H 
ATOM    123  H28 UNL A   1      22.402  33.291  43.170  1.00  0.00    +0.000 H 
ATOM    124  H29 UNL A   1      24.046  35.048  43.487  1.00  0.00    +0.000 H 
ATOM     94  C66 UNL A   1      24.843  33.117  46.112  1.00  0.00    +0.000 C 
ATOM     95  C67 UNL A   1      23.949  32.072  45.886  1.00  0.00    +0.000 C 
BRANCH   33   31
ATOM     31  C23 UNL A   1      22.020  31.090  44.618  1.00  0.00    +0.000 C 
ATOM     32  O3  UNL A   1      22.349  29.918  44.730  1.00  0.00    +0.000 O 
BRANCH   31   30
ATOM    122  H27 UNL A   1      20.621  32.067  43.564  1.00  0.00    +0.000 H 
ATOM     30  N4  UNL A   1      20.724  31.413  44.292  1.00  0.00    +0.000 N 
BRANCH   30   29
ATOM    121  H26 UNL A   1      19.486  31.166  45.914  1.00  0.00    +0.000 H 
ATOM     29  C22 UNL A   1      19.484  30.922  44.872  1.00  0.00    +0.000 C 
ATOM    120  H25 UNL A   1      19.428  29.864  44.725  1.00  0.00    +0.000 H 
BRANCH   29   28
ATOM     28  C21 UNL A   1      18.258  31.574  44.236  1.00  0.00    +0.000 C 
ATOM    118  H23 UNL A   1      17.456  30.866  44.258  1.00  0.00    +0.000 H 
ATOM    119  H24 UNL A   1      18.061  32.459  44.804  1.00  0.00    +0.000 H 
BRANCH   28   27
ATOM     27  C20 UNL A   1      18.449  32.033  42.784  1.00  0.00    +0.000 C 
ATOM    116  H21 UNL A   1      19.296  32.684  42.753  1.00  0.00    +0.000 H 
ATOM    117  H22 UNL A   1      18.568  31.140  42.207  1.00  0.00    +0.000 H 
BRANCH   27   26
ATOM     26  C19 UNL A   1      17.260  32.776  42.163  1.00  0.00    +0.000 C 
ATOM    115  H20 UNL A   1      16.816  32.107  41.456  1.00  0.00    +0.000 H 
ATOM    114  H19 UNL A   1      17.625  33.676  41.712  1.00  0.00    +0.000 H 
BRANCH   26   25
ATOM     25  C18 UNL A   1      16.160  33.153  43.160  1.00  0.00    +0.000 C 
ATOM    113  H18 UNL A   1      16.331  32.570  44.041  1.00  0.00    +0.000 H 
ATOM    112  H17 UNL A   1      15.213  32.950  42.706  1.00  0.00    +0.000 H 
BRANCH   25   24
ATOM    110  H15 UNL A   1      16.826  35.180  42.939  1.00  0.00    +0.000 H 
ATOM    111  H16 UNL A   1      15.188  35.023  43.541  1.00  0.00    +0.000 H 
ATOM     24  C17 UNL A   1      16.181  34.629  43.593  1.00  0.00    +0.000 C 
BRANCH   24   23
ATOM    109  H14 UNL A   1      16.163  34.248  45.639  1.00  0.00    +0.000 H 
ATOM     23  N3  UNL A   1      16.667  34.743  44.953  1.00  0.00    +0.000 N 
BRANCH   23   21
ATOM     21  C16 UNL A   1      17.754  35.466  45.396  1.00  0.00    +0.000 C 
ATOM     22  O2  UNL A   1      17.721  36.693  45.324  1.00  0.00    +0.000 O 
BRANCH   21    2
ATOM      2  C2  UNL A   1      19.079  34.829  45.780  1.00  0.00    +0.000 C 
BRANCH    2    1
ATOM      1  C1  UNL A   1      20.170  35.037  44.757  1.00  0.00    +0.000 C 
ATOM     98  H3  UNL A   1      21.081  35.295  45.256  1.00  0.00    +0.000 H 
ATOM     97  H2  UNL A   1      20.311  34.135  44.198  1.00  0.00    +0.000 H 
ATOM     96  H1  UNL A   1      19.891  35.829  44.093  1.00  0.00    +0.000 H 
ENDBRANCH    2    1
BRANCH    2    3
ATOM      3  N1  UNL A   1      19.402  34.209  46.879  1.00  0.00    +0.000 N 
BRANCH    3    4
ATOM      4  O1  UNL A   1      18.801  34.737  48.016  1.00  0.00    +0.000 O 
BRANCH    4    5
ATOM     99  H4  UNL A   1      20.731  35.086  48.564  1.00  0.00    +0.000 H 
ATOM    100  H5  UNL A   1      19.474  35.202  49.847  1.00  0.00    +0.000 H 
ATOM      5  C3  UNL A   1      19.755  35.427  48.840  1.00  0.00    +0.000 C 
BRANCH    5    6
ATOM    101  H6  UNL A   1      21.429  37.069  47.463  1.00  0.00    +0.000 H 
ATOM      6  C4  UNL A   1      19.754  36.945  48.751  1.00  0.00    +0.000 C 
ATOM      7  C5  UNL A   1      20.751  37.611  48.019  1.00  0.00    +0.000 C 
ATOM      8  C6  UNL A   1      20.831  39.004  48.042  1.00  0.00    +0.000 C 
ATOM    102  H7  UNL A   1      21.550  39.490  47.485  1.00  0.00    +0.000 H 
ATOM     10  C8  UNL A   1      18.928  39.084  49.531  1.00  0.00    +0.000 C 
ATOM     11  C9  UNL A   1      18.778  37.695  49.447  1.00  0.00    +0.000 C 
ATOM    104  H9  UNL A   1      18.288  39.632  50.126  1.00  0.00    +0.000 H 
ATOM      9  C7  UNL A   1      19.936  39.737  48.818  1.00  0.00    +0.000 C 
ATOM    103  H8  UNL A   1      20.020  40.764  48.867  1.00  0.00    +0.000 H 
BRANCH   11   12
ATOM    105  H10 UNL A   1      17.994  36.110  50.473  1.00  0.00    +0.000 H 
ATOM     12  N2  UNL A   1      17.743  36.992  50.113  1.00  0.00    +0.000 N 
BRANCH   12   13
ATOM    106  H11 UNL A   1      14.524  38.794  52.765  1.00  0.00    +0.000 H 
ATOM    107  H12 UNL A   1      12.747  38.294  51.191  1.00  0.00    +0.000 H 
ATOM    108  H13 UNL A   1      13.264  37.164  49.109  1.00  0.00    +0.000 H 
ATOM     13  C10 UNL A   1      16.398  37.379  50.335  1.00  0.00    +0.000 C 
ATOM     14  C11 UNL A   1      16.064  37.997  51.559  1.00  0.00    +0.000 C 
ATOM     15 Cl1  UNL A   1      17.277  38.360  52.743  1.00  0.00    +0.000 Cl
ATOM     16  C12 UNL A   1      14.742  38.329  51.869  1.00  0.00    +0.000 C 
ATOM     17  C13 UNL A   1      13.721  38.035  50.971  1.00  0.00    +0.000 C 
ATOM     18  C14 UNL A   1      14.022  37.391  49.773  1.00  0.00    +0.000 C 
ATOM     19  C15 UNL A   1      15.344  37.047  49.464  1.00  0.00    +0.000 C 
ATOM     20 Cl2  UNL A   1      15.600  36.160  48.001  1.00  0.00    +0.000 Cl
ENDBRANCH   12   13
ENDBRANCH   11   12
ENDBRANCH    5    6
ENDBRANCH    4    5
ENDBRANCH    3    4
ENDBRANCH    2    3
ENDBRANCH   21    2
ENDBRANCH   23   21
ENDBRANCH   24   23
ENDBRANCH   25   24
ENDBRANCH   26   25
ENDBRANCH   27   26
ENDBRANCH   28   27
ENDBRANCH   29   28
ENDBRANCH   30   29
ENDBRANCH   31   30
ENDBRANCH   33   31
ENDBRANCH   37   36
BRANCH   41   42
ATOM     42  C32 UNL A   1      31.307  35.445  42.884  1.00  0.00    +0.000 C 
ATOM     43  C33 UNL A   1      31.418  35.841  41.543  1.00  0.00    +0.000 C 
ATOM     44  F1  UNL A   1      30.689  36.868  41.080  1.00  0.00    +0.000 F 
ATOM     45  C34 UNL A   1      32.253  35.159  40.661  1.00  0.00    +0.000 C 
ATOM     46  F2  UNL A   1      32.308  35.526  39.374  1.00  0.00    +0.000 F 
ATOM     47  C35 UNL A   1      33.017  34.092  41.111  1.00  0.00    +0.000 C 
ATOM     48  F3  UNL A   1      33.825  33.441  40.262  1.00  0.00    +0.000 F 
ATOM     49  C36 UNL A   1      32.939  33.697  42.437  1.00  0.00    +0.000 C 
ATOM     50  F4  UNL A   1      33.686  32.674  42.875  1.00  0.00    +0.000 F 
ATOM     51  C37 UNL A   1      32.084  34.360  43.315  1.00  0.00    +0.000 C 
ATOM     52  F5  UNL A   1      32.020  33.944  44.589  1.00  0.00    +0.000 F 
ENDBRANCH   41   42
BRANCH   58   59
ATOM     65  F8  UNL A   1      34.134  44.474  47.865  1.00  0.00    +0.000 F 
ATOM     66  C47 UNL A   1      33.551  42.194  48.077  1.00  0.00    +0.000 C 
ATOM     67  F9  UNL A   1      34.636  41.974  48.833  1.00  0.00    +0.000 F 
ATOM     68  C48 UNL A   1      32.687  41.145  47.777  1.00  0.00    +0.000 C 
ATOM     69  F10 UNL A   1      32.970  39.922  48.250  1.00  0.00    +0.000 F 
ATOM     59  C43 UNL A   1      31.536  41.357  47.005  1.00  0.00    +0.000 C 
ATOM     60  C44 UNL A   1      31.283  42.655  46.540  1.00  0.00    +0.000 C 
ATOM     61  F6  UNL A   1      30.203  42.904  45.784  1.00  0.00    +0.000 F 
ATOM     62  C45 UNL A   1      32.163  43.697  46.820  1.00  0.00    +0.000 C 
ATOM     63  F7  UNL A   1      31.926  44.922  46.328  1.00  0.00    +0.000 F 
ATOM     64  C46 UNL A   1      33.292  43.468  47.593  1.00  0.00    +0.000 C 
ENDBRANCH   58   59
BRANCH   73   74
ATOM     74  C52 UNL A   1      25.200  39.822  49.457  1.00  0.00    +0.000 C 
ATOM     75  C53 UNL A   1      25.348  39.553  50.825  1.00  0.00    +0.000 C 
ATOM     76  F11 UNL A   1      26.288  38.689  51.237  1.00  0.00    +0.000 F 
ATOM     77  C54 UNL A   1      24.510  40.139  51.770  1.00  0.00    +0.000 C 
ATOM     78  F12 UNL A   1      24.648  39.832  53.066  1.00  0.00    +0.000 F 
ATOM     79  C55 UNL A   1      23.524  41.027  51.368  1.00  0.00    +0.000 C 
ATOM     80  F13 UNL A   1      22.721  41.595  52.277  1.00  0.00    +0.000 F 
ATOM     81  C56 UNL A   1      23.368  41.322  50.021  1.00  0.00    +0.000 C 
ATOM     82  F14 UNL A   1      22.425  42.190  49.631  1.00  0.00    +0.000 F 
ATOM     83  C57 UNL A   1      24.190  40.717  49.073  1.00  0.00    +0.000 C 
ATOM     84  F15 UNL A   1      24.012  41.012  47.777  1.00  0.00    +0.000 F 
ENDBRANCH   73   74
TORSDOF 22
ENDMDL
MODEL 7
REMARK VINA RESULT:      -9.6     19.920     23.627
ROOT
ATOM    129  H34 UNL A   1      26.753  33.647  44.408  1.00  0.00    +0.000 H 
ATOM    130  H35 UNL A   1      30.371  32.601  46.168  1.00  0.00    +0.000 H 
ATOM    131  H36 UNL A   1      33.913  35.151  43.673  1.00  0.00    +0.000 H 
ATOM    132  H37 UNL A   1      35.628  33.977  45.167  1.00  0.00    +0.000 H 
ATOM    133  H38 UNL A   1      28.233  29.506  50.292  1.00  0.00    +0.000 H 
ATOM    134  H39 UNL A   1      26.545  30.295  48.537  1.00  0.00    +0.000 H 
ATOM     37  C28 UNL A   1      27.663  32.026  46.568  1.00  0.00    +0.000 C 
ATOM     38  C29 UNL A   1      28.386  31.288  47.661  1.00  0.00    +0.000 C 
ATOM     39  N5  UNL A   1      29.664  31.273  47.945  1.00  0.00    +0.000 N 
ATOM     40  C30 UNL A   1      29.791  30.474  49.074  1.00  0.00    +0.000 C 
ATOM     41  C31 UNL A   1      30.920  30.105  49.726  1.00  0.00    +0.000 C 
ATOM     53  C38 UNL A   1      32.248  30.495  49.331  1.00  0.00    +0.000 C 
ATOM     54  C39 UNL A   1      33.459  30.122  49.888  1.00  0.00    +0.000 C 
ATOM     55  C40 UNL A   1      34.481  30.779  49.193  1.00  0.00    +0.000 C 
ATOM     56  C41 UNL A   1      33.909  31.528  48.177  1.00  0.00    +0.000 C 
ATOM     57  N6  UNL A   1      32.538  31.348  48.276  1.00  0.00    +0.000 N 
ATOM     58  C42 UNL A   1      34.563  32.346  47.189  1.00  0.00    +0.000 C 
ATOM     70  C49 UNL A   1      33.930  33.047  46.216  1.00  0.00    +0.000 C 
ATOM     71  N7  UNL A   1      32.571  33.134  45.947  1.00  0.00    +0.000 N 
ATOM     72  C50 UNL A   1      32.458  33.939  44.920  1.00  0.00    +0.000 C 
ATOM     73  C51 UNL A   1      31.218  34.373  44.185  1.00  0.00    +0.000 C 
ATOM     85  C58 UNL A   1      30.023  33.885  44.566  1.00  0.00    +0.000 C 
ATOM     86  C59 UNL A   1      28.740  34.208  43.948  1.00  0.00    +0.000 C 
ATOM     87  C60 UNL A   1      27.761  33.580  44.618  1.00  0.00    +0.000 C 
ATOM     88  C61 UNL A   1      28.352  32.782  45.694  1.00  0.00    +0.000 C 
ATOM     89  N8  UNL A   1      29.700  33.016  45.579  1.00  0.00    +0.000 N 
ATOM     90  C62 UNL A   1      33.737  34.478  44.436  1.00  0.00    +0.000 C 
ATOM     91  C63 UNL A   1      34.604  33.872  45.235  1.00  0.00    +0.000 C 
ATOM     92  C64 UNL A   1      28.457  30.059  49.450  1.00  0.00    +0.000 C 
ATOM     93  C65 UNL A   1      27.559  30.482  48.572  1.00  0.00    +0.000 C 
ATOM    125  H30 UNL A   1      33.587  29.472  50.678  1.00  0.00    +0.000 H 
ATOM    126  H31 UNL A   1      35.490  30.717  49.402  1.00  0.00    +0.000 H 
ATOM    127  H32 UNL A   1      31.870  31.765  47.685  1.00  0.00    +0.000 H 
ATOM    128  H33 UNL A   1      28.608  34.821  43.129  1.00  0.00    +0.000 H 
ENDROOT
BRANCH   37   36
ATOM     33  C24 UNL A   1      23.383  31.834  46.378  1.00  0.00    +0.000 C 
ATOM     34  C25 UNL A   1      23.999  32.932  46.987  1.00  0.00    +0.000 C 
ATOM     35  C26 UNL A   1      25.394  33.013  47.029  1.00  0.00    +0.000 C 
ATOM     36  C27 UNL A   1      26.181  31.981  46.492  1.00  0.00    +0.000 C 
ATOM    135  H40 UNL A   1      26.121  30.128  45.475  1.00  0.00    +0.000 H 
ATOM    136  H41 UNL A   1      23.708  30.080  45.248  1.00  0.00    +0.000 H 
ATOM    123  H28 UNL A   1      23.426  33.681  47.404  1.00  0.00    +0.000 H 
ATOM    124  H29 UNL A   1      25.847  33.834  47.459  1.00  0.00    +0.000 H 
ATOM     94  C66 UNL A   1      25.552  30.895  45.866  1.00  0.00    +0.000 C 
ATOM     95  C67 UNL A   1      24.162  30.846  45.769  1.00  0.00    +0.000 C 
BRANCH   33   31
ATOM     31  C23 UNL A   1      21.903  31.775  46.340  1.00  0.00    +0.000 C 
ATOM     32  O3  UNL A   1      21.247  32.583  46.982  1.00  0.00    +0.000 O 
BRANCH   31   30
ATOM    122  H27 UNL A   1      21.742  29.966  45.489  1.00  0.00    +0.000 H 
ATOM     30  N4  UNL A   1      21.267  30.823  45.578  1.00  0.00    +0.000 N 
BRANCH   30   29
ATOM    121  H26 UNL A   1      19.236  31.132  45.609  1.00  0.00    +0.000 H 
ATOM     29  C22 UNL A   1      19.991  30.907  44.885  1.00  0.00    +0.000 C 
ATOM    120  H25 UNL A   1      19.797  29.972  44.403  1.00  0.00    +0.000 H 
BRANCH   29   28
ATOM     28  C21 UNL A   1      19.985  32.015  43.834  1.00  0.00    +0.000 C 
ATOM    118  H23 UNL A   1      20.043  32.955  44.341  1.00  0.00    +0.000 H 
ATOM    119  H24 UNL A   1      20.820  31.825  43.193  1.00  0.00    +0.000 H 
BRANCH   28   27
ATOM     27  C20 UNL A   1      18.747  32.040  42.926  1.00  0.00    +0.000 C 
ATOM    116  H21 UNL A   1      18.686  33.010  42.480  1.00  0.00    +0.000 H 
ATOM    117  H22 UNL A   1      18.884  31.247  42.221  1.00  0.00    +0.000 H 
BRANCH   27   26
ATOM     26  C19 UNL A   1      17.410  31.756  43.622  1.00  0.00    +0.000 C 
ATOM    115  H20 UNL A   1      16.755  32.562  43.366  1.00  0.00    +0.000 H 
ATOM    114  H19 UNL A   1      17.590  31.684  44.675  1.00  0.00    +0.000 H 
BRANCH   26   25
ATOM     25  C18 UNL A   1      16.721  30.468  43.165  1.00  0.00    +0.000 C 
ATOM    113  H18 UNL A   1      17.369  30.010  42.447  1.00  0.00    +0.000 H 
ATOM    112  H17 UNL A   1      15.766  30.726  42.756  1.00  0.00    +0.000 H 
BRANCH   25   24
ATOM    110  H15 UNL A   1      17.001  29.770  45.174  1.00  0.00    +0.000 H 
ATOM    111  H16 UNL A   1      15.453  29.342  44.474  1.00  0.00    +0.000 H 
ATOM     24  C17 UNL A   1      16.502  29.438  44.287  1.00  0.00    +0.000 C 
BRANCH   24   23
ATOM    109  H14 UNL A   1      17.938  28.151  43.502  1.00  0.00    +0.000 H 
ATOM     23  N3  UNL A   1      17.034  28.149  43.891  1.00  0.00    +0.000 N 
BRANCH   23   21
ATOM     21  C16 UNL A   1      16.418  26.921  43.999  1.00  0.00    +0.000 C 
ATOM     22  O2  UNL A   1      16.931  26.058  44.710  1.00  0.00    +0.000 O 
BRANCH   21    2
ATOM      2  C2  UNL A   1      15.246  26.495  43.129  1.00  0.00    +0.000 C 
BRANCH    2    1
ATOM      1  C1  UNL A   1      15.068  27.346  41.894  1.00  0.00    +0.000 C 
ATOM     98  H3  UNL A   1      14.266  28.036  42.050  1.00  0.00    +0.000 H 
ATOM     97  H2  UNL A   1      15.972  27.886  41.700  1.00  0.00    +0.000 H 
ATOM     96  H1  UNL A   1      14.840  26.718  41.058  1.00  0.00    +0.000 H 
ENDBRANCH    2    1
BRANCH    2    3
ATOM      3  N1  UNL A   1      14.446  25.478  43.272  1.00  0.00    +0.000 N 
BRANCH    3    4
ATOM      4  O1  UNL A   1      15.058  24.250  43.046  1.00  0.00    +0.000 O 
BRANCH    4    5
ATOM     99  H4  UNL A   1      13.157  23.600  42.715  1.00  0.00    +0.000 H 
ATOM    100  H5  UNL A   1      14.454  22.354  42.790  1.00  0.00    +0.000 H 
ATOM      5  C3  UNL A   1      14.151  23.317  42.437  1.00  0.00    +0.000 C 
BRANCH    5    6
ATOM    101  H6  UNL A   1      15.096  25.115  40.629  1.00  0.00    +0.000 H 
ATOM      6  C4  UNL A   1      14.196  23.221  40.920  1.00  0.00    +0.000 C 
ATOM      7  C5  UNL A   1      14.681  24.297  40.157  1.00  0.00    +0.000 C 
ATOM      8  C6  UNL A   1      14.603  24.265  38.764  1.00  0.00    +0.000 C 
ATOM    102  H7  UNL A   1      14.982  25.048  38.208  1.00  0.00    +0.000 H 
ATOM     10  C8  UNL A   1      13.551  22.093  38.876  1.00  0.00    +0.000 C 
ATOM     11  C9  UNL A   1      13.703  22.067  40.267  1.00  0.00    +0.000 C 
ATOM    104  H9  UNL A   1      13.090  21.303  38.399  1.00  0.00    +0.000 H 
ATOM      9  C7  UNL A   1      14.015  23.176  38.127  1.00  0.00    +0.000 C 
ATOM    103  H8  UNL A   1      13.921  23.171  37.099  1.00  0.00    +0.000 H 
BRANCH   11   12
ATOM    105  H10 UNL A   1      13.806  20.835  41.895  1.00  0.00    +0.000 H 
ATOM     12  N2  UNL A   1      13.291  20.971  41.066  1.00  0.00    +0.000 N 
BRANCH   12   13
ATOM    106  H11 UNL A   1       9.421  18.973  42.359  1.00  0.00    +0.000 H 
ATOM    107  H12 UNL A   1       9.433  17.421  40.494  1.00  0.00    +0.000 H 
ATOM    108  H13 UNL A   1      11.247  17.483  38.886  1.00  0.00    +0.000 H 
ATOM     13  C10 UNL A   1      12.244  20.045  40.840  1.00  0.00    +0.000 C 
ATOM     14  C11 UNL A   1      11.201  19.957  41.787  1.00  0.00    +0.000 C 
ATOM     15 Cl1  UNL A   1      11.142  21.015  43.158  1.00  0.00    +0.000 Cl
ATOM     16  C12 UNL A   1      10.182  19.008  41.661  1.00  0.00    +0.000 C 
ATOM     17  C13 UNL A   1      10.192  18.112  40.598  1.00  0.00    +0.000 C 
ATOM     18  C14 UNL A   1      11.233  18.154  39.672  1.00  0.00    +0.000 C 
ATOM     19  C15 UNL A   1      12.261  19.096  39.800  1.00  0.00    +0.000 C 
ATOM     20 Cl2  UNL A   1      13.558  19.000  38.660  1.00  0.00    +0.000 Cl
ENDBRANCH   12   13
ENDBRANCH   11   12
ENDBRANCH    5    6
ENDBRANCH    4    5
ENDBRANCH    3    4
ENDBRANCH    2    3
ENDBRANCH   21    2
ENDBRANCH   23   21
ENDBRANCH   24   23
ENDBRANCH   25   24
ENDBRANCH   26   25
ENDBRANCH   27   26
ENDBRANCH   28   27
ENDBRANCH   29   28
ENDBRANCH   30   29
ENDBRANCH   31   30
ENDBRANCH   33   31
ENDBRANCH   37   36
BRANCH   41   42
ATOM     42  C32 UNL A   1      30.768  29.229  50.935  1.00  0.00    +0.000 C 
ATOM     43  C33 UNL A   1      30.655  29.772  52.224  1.00  0.00    +0.000 C 
ATOM     44  F1  UNL A   1      30.727  31.099  52.407  1.00  0.00    +0.000 F 
ATOM     45  C34 UNL A   1      30.506  28.948  53.337  1.00  0.00    +0.000 C 
ATOM     46  F2  UNL A   1      30.448  29.486  54.563  1.00  0.00    +0.000 F 
ATOM     47  C35 UNL A   1      30.432  27.572  53.180  1.00  0.00    +0.000 C 
ATOM     48  F3  UNL A   1      30.282  26.782  54.253  1.00  0.00    +0.000 F 
ATOM     49  C36 UNL A   1      30.519  27.016  51.914  1.00  0.00    +0.000 C 
ATOM     50  F4  UNL A   1      30.435  25.687  51.760  1.00  0.00    +0.000 F 
ATOM     51  C37 UNL A   1      30.696  27.835  50.801  1.00  0.00    +0.000 C 
ATOM     52  F5  UNL A   1      30.792  27.265  49.590  1.00  0.00    +0.000 F 
ENDBRANCH   41   42
BRANCH   58   59
ATOM     65  F8  UNL A   1      40.199  32.697  47.258  1.00  0.00    +0.000 F 
ATOM     66  C47 UNL A   1      38.096  33.546  47.920  1.00  0.00    +0.000 C 
ATOM     67  F9  UNL A   1      38.694  34.549  48.579  1.00  0.00    +0.000 F 
ATOM     68  C48 UNL A   1      36.708  33.444  47.919  1.00  0.00    +0.000 C 
ATOM     69  F10 UNL A   1      35.994  34.357  48.594  1.00  0.00    +0.000 F 
ATOM     59  C43 UNL A   1      36.061  32.416  47.219  1.00  0.00    +0.000 C 
ATOM     60  C44 UNL A   1      36.853  31.490  46.525  1.00  0.00    +0.000 C 
ATOM     61  F6  UNL A   1      36.280  30.479  45.854  1.00  0.00    +0.000 F 
ATOM     62  C45 UNL A   1      38.243  31.580  46.550  1.00  0.00    +0.000 C 
ATOM     63  F7  UNL A   1      38.983  30.658  45.916  1.00  0.00    +0.000 F 
ATOM     64  C46 UNL A   1      38.863  32.610  47.241  1.00  0.00    +0.000 C 
ENDBRANCH   58   59
BRANCH   73   74
ATOM     74  C52 UNL A   1      31.304  35.301  43.030  1.00  0.00    +0.000 C 
ATOM     75  C53 UNL A   1      31.555  34.818  41.738  1.00  0.00    +0.000 C 
ATOM     76  F11 UNL A   1      31.744  33.504  41.541  1.00  0.00    +0.000 F 
ATOM     77  C54 UNL A   1      31.649  35.683  40.651  1.00  0.00    +0.000 C 
ATOM     78  F12 UNL A   1      31.931  35.198  39.434  1.00  0.00    +0.000 F 
ATOM     79  C55 UNL A   1      31.469  37.046  40.830  1.00  0.00    +0.000 C 
ATOM     80  F13 UNL A   1      31.555  37.877  39.783  1.00  0.00    +0.000 F 
ATOM     81  C56 UNL A   1      31.204  37.547  42.095  1.00  0.00    +0.000 C 
ATOM     82  F14 UNL A   1      31.015  38.861  42.270  1.00  0.00    +0.000 F 
ATOM     83  C57 UNL A   1      31.134  36.684  43.188  1.00  0.00    +0.000 C 
ATOM     84  F15 UNL A   1      30.886  37.195  44.403  1.00  0.00    +0.000 F 
ENDBRANCH   73   74
TORSDOF 22
ENDMDL
MODEL 8
REMARK VINA RESULT:      -9.6     19.965     24.078
ROOT
ATOM    129  H34 UNL A   1      26.781  33.808  44.443  1.00  0.00    +0.000 H 
ATOM    130  H35 UNL A   1      30.376  32.593  46.140  1.00  0.00    +0.000 H 
ATOM    131  H36 UNL A   1      33.989  34.995  43.600  1.00  0.00    +0.000 H 
ATOM    132  H37 UNL A   1      35.673  33.739  45.063  1.00  0.00    +0.000 H 
ATOM    133  H38 UNL A   1      28.168  29.576  50.285  1.00  0.00    +0.000 H 
ATOM    134  H39 UNL A   1      26.489  30.449  48.561  1.00  0.00    +0.000 H 
ATOM     37  C28 UNL A   1      27.652  32.137  46.581  1.00  0.00    +0.000 C 
ATOM     38  C29 UNL A   1      28.359  31.363  47.660  1.00  0.00    +0.000 C 
ATOM     39  N5  UNL A   1      29.639  31.290  47.924  1.00  0.00    +0.000 N 
ATOM     40  C30 UNL A   1      29.747  30.481  49.047  1.00  0.00    +0.000 C 
ATOM     41  C31 UNL A   1      30.869  30.058  49.679  1.00  0.00    +0.000 C 
ATOM     53  C38 UNL A   1      32.207  30.391  49.265  1.00  0.00    +0.000 C 
ATOM     54  C39 UNL A   1      33.409  29.962  49.801  1.00  0.00    +0.000 C 
ATOM     55  C40 UNL A   1      34.448  30.576  49.093  1.00  0.00    +0.000 C 
ATOM     56  C41 UNL A   1      33.894  31.354  48.089  1.00  0.00    +0.000 C 
ATOM     57  N6  UNL A   1      32.518  31.235  48.209  1.00  0.00    +0.000 N 
ATOM     58  C42 UNL A   1      34.568  32.147  47.094  1.00  0.00    +0.000 C 
ATOM     70  C49 UNL A   1      33.952  32.880  46.134  1.00  0.00    +0.000 C 
ATOM     71  N7  UNL A   1      32.594  33.029  45.887  1.00  0.00    +0.000 N 
ATOM     72  C50 UNL A   1      32.501  33.843  44.865  1.00  0.00    +0.000 C 
ATOM     73  C51 UNL A   1      31.271  34.335  44.152  1.00  0.00    +0.000 C 
ATOM     85  C58 UNL A   1      30.061  33.899  44.550  1.00  0.00    +0.000 C 
ATOM     86  C59 UNL A   1      28.785  34.282  43.953  1.00  0.00    +0.000 C 
ATOM     87  C60 UNL A   1      27.788  33.694  44.637  1.00  0.00    +0.000 C 
ATOM     88  C61 UNL A   1      28.360  32.866  45.699  1.00  0.00    +0.000 C 
ATOM     89  N8  UNL A   1      29.715  33.041  45.564  1.00  0.00    +0.000 N 
ATOM     90  C62 UNL A   1      33.795  34.327  44.363  1.00  0.00    +0.000 C 
ATOM     91  C63 UNL A   1      34.646  33.680  45.146  1.00  0.00    +0.000 C 
ATOM     92  C64 UNL A   1      28.402  30.124  49.442  1.00  0.00    +0.000 C 
ATOM     93  C65 UNL A   1      27.510  30.590  48.580  1.00  0.00    +0.000 C 
ATOM    125  H30 UNL A   1      33.520  29.303  50.587  1.00  0.00    +0.000 H 
ATOM    126  H31 UNL A   1      35.456  30.467  49.285  1.00  0.00    +0.000 H 
ATOM    127  H32 UNL A   1      31.860  31.684  47.631  1.00  0.00    +0.000 H 
ATOM    128  H33 UNL A   1      28.667  34.904  43.139  1.00  0.00    +0.000 H 
ENDROOT
BRANCH   37   36
ATOM     33  C24 UNL A   1      23.366  32.133  46.450  1.00  0.00    +0.000 C 
ATOM     34  C25 UNL A   1      24.034  33.124  47.177  1.00  0.00    +0.000 C 
ATOM     35  C26 UNL A   1      25.432  33.146  47.203  1.00  0.00    +0.000 C 
ATOM     36  C27 UNL A   1      26.168  32.159  46.528  1.00  0.00    +0.000 C 
ATOM    135  H40 UNL A   1      26.020  30.448  45.293  1.00  0.00    +0.000 H 
ATOM    136  H41 UNL A   1      23.604  30.521  45.108  1.00  0.00    +0.000 H 
ATOM    123  H28 UNL A   1      23.497  33.837  47.694  1.00  0.00    +0.000 H 
ATOM    124  H29 UNL A   1      25.924  33.889  47.721  1.00  0.00    +0.000 H 
ATOM     94  C66 UNL A   1      25.487  31.183  45.786  1.00  0.00    +0.000 C 
ATOM     95  C67 UNL A   1      24.096  31.199  45.710  1.00  0.00    +0.000 C 
BRANCH   33   31
ATOM     31  C23 UNL A   1      21.884  32.136  46.433  1.00  0.00    +0.000 C 
ATOM     32  O3  UNL A   1      21.266  32.402  47.454  1.00  0.00    +0.000 O 
BRANCH   31   30
ATOM    122  H27 UNL A   1      21.338  32.492  44.536  1.00  0.00    +0.000 H 
ATOM     30  N4  UNL A   1      21.204  31.852  45.272  1.00  0.00    +0.000 N 
BRANCH   30   29
ATOM    121  H26 UNL A   1      20.473  29.985  45.723  1.00  0.00    +0.000 H 
ATOM     29  C22 UNL A   1      20.315  30.739  44.981  1.00  0.00    +0.000 C 
ATOM    120  H25 UNL A   1      20.533  30.369  44.002  1.00  0.00    +0.000 H 
BRANCH   29   28
ATOM     28  C21 UNL A   1      18.845  31.154  45.035  1.00  0.00    +0.000 C 
ATOM    118  H23 UNL A   1      18.395  30.674  45.879  1.00  0.00    +0.000 H 
ATOM    119  H24 UNL A   1      18.838  32.222  45.099  1.00  0.00    +0.000 H 
BRANCH   28   27
ATOM     27  C20 UNL A   1      18.024  30.795  43.789  1.00  0.00    +0.000 C 
ATOM    116  H21 UNL A   1      18.447  29.912  43.360  1.00  0.00    +0.000 H 
ATOM    117  H22 UNL A   1      17.017  30.674  44.126  1.00  0.00    +0.000 H 
BRANCH   27   26
ATOM     26  C19 UNL A   1      17.974  31.872  42.697  1.00  0.00    +0.000 C 
ATOM    115  H20 UNL A   1      18.054  31.360  41.761  1.00  0.00    +0.000 H 
ATOM    114  H19 UNL A   1      18.778  32.558  42.866  1.00  0.00    +0.000 H 
BRANCH   26   25
ATOM     25  C18 UNL A   1      16.667  32.667  42.653  1.00  0.00    +0.000 C 
ATOM    113  H18 UNL A   1      15.885  31.963  42.454  1.00  0.00    +0.000 H 
ATOM    112  H17 UNL A   1      16.755  33.415  41.894  1.00  0.00    +0.000 H 
BRANCH   25   24
ATOM    110  H15 UNL A   1      15.296  33.708  43.933  1.00  0.00    +0.000 H 
ATOM    111  H16 UNL A   1      16.422  32.667  44.782  1.00  0.00    +0.000 H 
ATOM     24  C17 UNL A   1      16.309  33.364  43.977  1.00  0.00    +0.000 C 
BRANCH   24   23
ATOM    109  H14 UNL A   1      17.556  34.926  43.396  1.00  0.00    +0.000 H 
ATOM     23  N3  UNL A   1      17.189  34.493  44.201  1.00  0.00    +0.000 N 
BRANCH   23   21
ATOM     21  C16 UNL A   1      17.570  35.031  45.411  1.00  0.00    +0.000 C 
ATOM     22  O2  UNL A   1      18.261  34.355  46.171  1.00  0.00    +0.000 O 
BRANCH   21    2
ATOM      2  C2  UNL A   1      17.016  36.338  45.955  1.00  0.00    +0.000 C 
BRANCH    2    1
ATOM      1  C1  UNL A   1      15.835  36.157  46.879  1.00  0.00    +0.000 C 
ATOM     98  H3  UNL A   1      15.740  37.019  47.507  1.00  0.00    +0.000 H 
ATOM     97  H2  UNL A   1      14.944  36.037  46.299  1.00  0.00    +0.000 H 
ATOM     96  H1  UNL A   1      15.987  35.289  47.486  1.00  0.00    +0.000 H 
ENDBRANCH    2    1
BRANCH    2    3
ATOM      3  N1  UNL A   1      17.463  37.550  45.789  1.00  0.00    +0.000 N 
BRANCH    3    4
ATOM      4  O1  UNL A   1      18.849  37.627  45.705  1.00  0.00    +0.000 O 
BRANCH    4    5
ATOM     99  H4  UNL A   1      18.650  38.647  47.456  1.00  0.00    +0.000 H 
ATOM    100  H5  UNL A   1      20.242  38.741  46.622  1.00  0.00    +0.000 H 
ATOM      5  C3  UNL A   1      19.420  38.128  46.925  1.00  0.00    +0.000 C 
BRANCH    5    6
ATOM    101  H6  UNL A   1      18.290  36.919  49.083  1.00  0.00    +0.000 H 
ATOM      6  C4  UNL A   1      20.015  37.094  47.868  1.00  0.00    +0.000 C 
ATOM      7  C5  UNL A   1      19.274  36.631  48.968  1.00  0.00    +0.000 C 
ATOM      8  C6  UNL A   1      19.862  35.783  49.908  1.00  0.00    +0.000 C 
ATOM    102  H7  UNL A   1      19.307  35.426  50.701  1.00  0.00    +0.000 H 
ATOM     10  C8  UNL A   1      21.936  35.856  48.670  1.00  0.00    +0.000 C 
ATOM     11  C9  UNL A   1      21.337  36.632  47.671  1.00  0.00    +0.000 C 
ATOM    104  H9  UNL A   1      22.934  35.605  48.592  1.00  0.00    +0.000 H 
ATOM      9  C7  UNL A   1      21.198  35.418  49.772  1.00  0.00    +0.000 C 
ATOM    103  H8  UNL A   1      21.645  34.824  50.488  1.00  0.00    +0.000 H 
BRANCH   11   12
ATOM    105  H10 UNL A   1      21.842  37.984  46.223  1.00  0.00    +0.000 H 
ATOM     12  N2  UNL A   1      22.030  37.062  46.511  1.00  0.00    +0.000 N 
BRANCH   12   13
ATOM    106  H11 UNL A   1      26.288  36.235  45.160  1.00  0.00    +0.000 H 
ATOM    107  H12 UNL A   1      25.590  34.666  43.445  1.00  0.00    +0.000 H 
ATOM    108  H13 UNL A   1      23.232  34.209  43.118  1.00  0.00    +0.000 H 
ATOM     13  C10 UNL A   1      22.955  36.350  45.709  1.00  0.00    +0.000 C 
ATOM     14  C11 UNL A   1      24.331  36.633  45.848  1.00  0.00    +0.000 C 
ATOM     15 Cl1  UNL A   1      24.900  37.762  47.034  1.00  0.00    +0.000 Cl
ATOM     16  C12 UNL A   1      25.286  36.023  45.029  1.00  0.00    +0.000 C 
ATOM     17  C13 UNL A   1      24.886  35.130  44.040  1.00  0.00    +0.000 C 
ATOM     18  C14 UNL A   1      23.531  34.865  43.858  1.00  0.00    +0.000 C 
ATOM     19  C15 UNL A   1      22.571  35.482  44.669  1.00  0.00    +0.000 C 
ATOM     20 Cl2  UNL A   1      20.911  35.166  44.298  1.00  0.00    +0.000 Cl
ENDBRANCH   12   13
ENDBRANCH   11   12
ENDBRANCH    5    6
ENDBRANCH    4    5
ENDBRANCH    3    4
ENDBRANCH    2    3
ENDBRANCH   21    2
ENDBRANCH   23   21
ENDBRANCH   24   23
ENDBRANCH   25   24
ENDBRANCH   26   25
ENDBRANCH   27   26
ENDBRANCH   28   27
ENDBRANCH   29   28
ENDBRANCH   30   29
ENDBRANCH   31   30
ENDBRANCH   33   31
ENDBRANCH   37   36
BRANCH   41   42
ATOM     42  C32 UNL A   1      30.697  29.184  50.887  1.00  0.00    +0.000 C 
ATOM     43  C33 UNL A   1      30.623  27.787  50.777  1.00  0.00    +0.000 C 
ATOM     44  F1  UNL A   1      30.659  27.202  49.570  1.00  0.00    +0.000 F 
ATOM     45  C34 UNL A   1      30.471  26.986  51.906  1.00  0.00    +0.000 C 
ATOM     46  F2  UNL A   1      30.355  25.658  51.772  1.00  0.00    +0.000 F 
ATOM     47  C35 UNL A   1      30.426  27.563  53.167  1.00  0.00    +0.000 C 
ATOM     48  F3  UNL A   1      30.287  26.789  54.253  1.00  0.00    +0.000 F 
ATOM     49  C36 UNL A   1      30.519  28.939  53.301  1.00  0.00    +0.000 C 
ATOM     50  F4  UNL A   1      30.489  29.496  54.519  1.00  0.00    +0.000 F 
ATOM     51  C37 UNL A   1      30.643  29.745  52.171  1.00  0.00    +0.000 C 
ATOM     52  F5  UNL A   1      30.716  31.075  52.333  1.00  0.00    +0.000 F 
ENDBRANCH   41   42
BRANCH   58   59
ATOM     65  F8  UNL A   1      40.215  32.069  47.162  1.00  0.00    +0.000 F 
ATOM     66  C47 UNL A   1      38.173  31.138  46.424  1.00  0.00    +0.000 C 
ATOM     67  F9  UNL A   1      38.834  30.184  45.754  1.00  0.00    +0.000 F 
ATOM     68  C48 UNL A   1      36.782  31.173  46.391  1.00  0.00    +0.000 C 
ATOM     69  F10 UNL A   1      36.130  30.246  45.674  1.00  0.00    +0.000 F 
ATOM     59  C43 UNL A   1      36.068  32.150  47.101  1.00  0.00    +0.000 C 
ATOM     60  C44 UNL A   1      36.797  33.093  47.839  1.00  0.00    +0.000 C 
ATOM     61  F6  UNL A   1      36.159  34.057  48.521  1.00  0.00    +0.000 F 
ATOM     62  C45 UNL A   1      38.189  33.071  47.848  1.00  0.00    +0.000 C 
ATOM     63  F7  UNL A   1      38.868  34.009  48.524  1.00  0.00    +0.000 F 
ATOM     64  C46 UNL A   1      38.876  32.091  47.147  1.00  0.00    +0.000 C 
ENDBRANCH   58   59
BRANCH   73   74
ATOM     74  C52 UNL A   1      31.380  35.264  42.999  1.00  0.00    +0.000 C 
ATOM     75  C53 UNL A   1      31.233  36.647  43.174  1.00  0.00    +0.000 C 
ATOM     76  F11 UNL A   1      30.966  37.141  44.393  1.00  0.00    +0.000 F 
ATOM     77  C54 UNL A   1      31.322  37.523  42.096  1.00  0.00    +0.000 C 
ATOM     78  F12 UNL A   1      31.136  38.836  42.286  1.00  0.00    +0.000 F 
ATOM     79  C55 UNL A   1      31.585  37.037  40.825  1.00  0.00    +0.000 C 
ATOM     80  F13 UNL A   1      31.675  37.880  39.788  1.00  0.00    +0.000 F 
ATOM     81  C56 UNL A   1      31.751  35.674  40.628  1.00  0.00    +0.000 C 
ATOM     82  F14 UNL A   1      32.020  35.201  39.404  1.00  0.00    +0.000 F 
ATOM     83  C57 UNL A   1      31.638  34.794  41.703  1.00  0.00    +0.000 C 
ATOM     84  F15 UNL A   1      31.792  33.480  41.484  1.00  0.00    +0.000 F 
ENDBRANCH   73   74
TORSDOF 22
ENDMDL
MODEL 9
REMARK VINA RESULT:      -9.5     34.201     39.573
ROOT
ATOM    129  H34 UNL A   1       9.610  28.797   3.926  1.00  0.00    +0.000 H 
ATOM    130  H35 UNL A   1      11.137  24.938   3.678  1.00  0.00    +0.000 H 
ATOM    131  H36 UNL A   1       9.459  22.521   7.754  1.00  0.00    +0.000 H 
ATOM    132  H37 UNL A   1      10.795  20.494   6.943  1.00  0.00    +0.000 H 
ATOM    133  H38 UNL A   1      13.469  25.470  -1.365  1.00  0.00    +0.000 H 
ATOM    134  H39 UNL A   1      12.535  27.633  -0.365  1.00  0.00    +0.000 H 
ATOM     37  C28 UNL A   1      11.191  27.260   2.120  1.00  0.00    +0.000 C 
ATOM     38  C29 UNL A   1      11.956  26.238   1.326  1.00  0.00    +0.000 C 
ATOM     39  N5  UNL A   1      12.174  24.975   1.594  1.00  0.00    +0.000 N 
ATOM     40  C30 UNL A   1      12.891  24.478   0.513  1.00  0.00    +0.000 C 
ATOM     41  C31 UNL A   1      13.401  23.235   0.338  1.00  0.00    +0.000 C 
ATOM     53  C38 UNL A   1      13.284  22.168   1.296  1.00  0.00    +0.000 C 
ATOM     54  C39 UNL A   1      13.820  20.893   1.239  1.00  0.00    +0.000 C 
ATOM     55  C40 UNL A   1      13.412  20.194   2.380  1.00  0.00    +0.000 C 
ATOM     56  C41 UNL A   1      12.656  21.048   3.169  1.00  0.00    +0.000 C 
ATOM     57  N6  UNL A   1      12.582  22.253   2.490  1.00  0.00    +0.000 N 
ATOM     58  C42 UNL A   1      12.047  20.784   4.447  1.00  0.00    +0.000 C 
ATOM     70  C49 UNL A   1      11.324  21.679   5.164  1.00  0.00    +0.000 C 
ATOM     71  N7  UNL A   1      11.020  22.999   4.861  1.00  0.00    +0.000 N 
ATOM     72  C50 UNL A   1      10.291  23.439   5.856  1.00  0.00    +0.000 C 
ATOM     73  C51 UNL A   1       9.705  24.808   6.070  1.00  0.00    +0.000 C 
ATOM     85  C58 UNL A   1       9.942  25.775   5.164  1.00  0.00    +0.000 C 
ATOM     86  C59 UNL A   1       9.447  27.147   5.240  1.00  0.00    +0.000 C 
ATOM     87  C60 UNL A   1       9.838  27.814   4.142  1.00  0.00    +0.000 C 
ATOM     88  C61 UNL A   1      10.640  26.924   3.301  1.00  0.00    +0.000 C 
ATOM     89  N8  UNL A   1      10.657  25.739   3.992  1.00  0.00    +0.000 N 
ATOM     90  C62 UNL A   1      10.028  22.436   6.897  1.00  0.00    +0.000 C 
ATOM     91  C63 UNL A   1      10.712  21.394   6.445  1.00  0.00    +0.000 C 
ATOM     92  C64 UNL A   1      13.032  25.561  -0.434  1.00  0.00    +0.000 C 
ATOM     93  C65 UNL A   1      12.528  26.688   0.048  1.00  0.00    +0.000 C 
ATOM    125  H30 UNL A   1      14.418  20.521   0.485  1.00  0.00    +0.000 H 
ATOM    126  H31 UNL A   1      13.635  19.210   2.599  1.00  0.00    +0.000 H 
ATOM    127  H32 UNL A   1      12.102  23.052   2.807  1.00  0.00    +0.000 H 
ATOM    128  H33 UNL A   1       8.888  27.539   6.012  1.00  0.00    +0.000 H 
ENDROOT
BRANCH   37   36
ATOM     33  C24 UNL A   1      10.646  31.202   0.522  1.00  0.00    +0.000 C 
ATOM     34  C25 UNL A   1       9.850  30.151   0.056  1.00  0.00    +0.000 C 
ATOM     35  C26 UNL A   1      10.005  28.869   0.591  1.00  0.00    +0.000 C 
ATOM     36  C27 UNL A   1      10.978  28.624   1.572  1.00  0.00    +0.000 C 
ATOM    135  H40 UNL A   1      12.481  29.518   2.762  1.00  0.00    +0.000 H 
ATOM    136  H41 UNL A   1      12.086  31.771   1.958  1.00  0.00    +0.000 H 
ATOM    123  H28 UNL A   1       9.149  30.322  -0.682  1.00  0.00    +0.000 H 
ATOM    124  H29 UNL A   1       9.402  28.100   0.262  1.00  0.00    +0.000 H 
ATOM     94  C66 UNL A   1      11.757  29.690   2.046  1.00  0.00    +0.000 C 
ATOM     95  C67 UNL A   1      11.559  30.980   1.557  1.00  0.00    +0.000 C 
BRANCH   33   31
ATOM     31  C23 UNL A   1      10.457  32.554  -0.056  1.00  0.00    +0.000 C 
ATOM     32  O3  UNL A   1       9.397  32.841  -0.593  1.00  0.00    +0.000 O 
BRANCH   31   30
ATOM    122  H27 UNL A   1      11.652  33.836   0.919  1.00  0.00    +0.000 H 
ATOM     30  N4  UNL A   1      11.465  33.486   0.018  1.00  0.00    +0.000 N 
BRANCH   30   29
ATOM    121  H26 UNL A   1      12.848  34.851  -0.652  1.00  0.00    +0.000 H 
ATOM     29  C22 UNL A   1      12.292  34.027  -1.049  1.00  0.00    +0.000 C 
ATOM    120  H25 UNL A   1      11.660  34.340  -1.853  1.00  0.00    +0.000 H 
BRANCH   29   28
ATOM     28  C21 UNL A   1      13.289  32.996  -1.577  1.00  0.00    +0.000 C 
ATOM    118  H23 UNL A   1      14.275  33.338  -1.343  1.00  0.00    +0.000 H 
ATOM    119  H24 UNL A   1      13.037  32.068  -1.107  1.00  0.00    +0.000 H 
BRANCH   28   27
ATOM     27  C20 UNL A   1      13.219  32.743  -3.089  1.00  0.00    +0.000 C 
ATOM    116  H21 UNL A   1      13.627  33.598  -3.585  1.00  0.00    +0.000 H 
ATOM    117  H22 UNL A   1      13.767  31.840  -3.261  1.00  0.00    +0.000 H 
BRANCH   27   26
ATOM     26  C19 UNL A   1      11.815  32.495  -3.654  1.00  0.00    +0.000 C 
ATOM    115  H20 UNL A   1      11.885  32.624  -4.714  1.00  0.00    +0.000 H 
ATOM    114  H19 UNL A   1      11.142  33.189  -3.194  1.00  0.00    +0.000 H 
BRANCH   26   25
ATOM     25  C18 UNL A   1      11.279  31.080  -3.419  1.00  0.00    +0.000 C 
ATOM    113  H18 UNL A   1      10.228  31.175  -3.244  1.00  0.00    +0.000 H 
ATOM    112  H17 UNL A   1      11.802  30.658  -2.587  1.00  0.00    +0.000 H 
BRANCH   25   24
ATOM    110  H15 UNL A   1      10.685  29.383  -4.589  1.00  0.00    +0.000 H 
ATOM    111  H16 UNL A   1      11.358  30.702  -5.527  1.00  0.00    +0.000 H 
ATOM     24  C17 UNL A   1      11.446  30.136  -4.623  1.00  0.00    +0.000 C 
BRANCH   24   23
ATOM    109  H14 UNL A   1      13.324  29.641  -5.371  1.00  0.00    +0.000 H 
ATOM     23  N3  UNL A   1      12.749  29.503  -4.584  1.00  0.00    +0.000 N 
BRANCH   23   21
ATOM     21  C16 UNL A   1      13.274  28.732  -3.570  1.00  0.00    +0.000 C 
ATOM     22  O2  UNL A   1      12.790  27.621  -3.355  1.00  0.00    +0.000 O 
BRANCH   21    2
ATOM      2  C2  UNL A   1      14.286  29.253  -2.563  1.00  0.00    +0.000 C 
BRANCH    2    1
ATOM      1  C1  UNL A   1      13.719  29.439  -1.176  1.00  0.00    +0.000 C 
ATOM     98  H3  UNL A   1      12.815  28.876  -1.082  1.00  0.00    +0.000 H 
ATOM     97  H2  UNL A   1      14.429  29.098  -0.451  1.00  0.00    +0.000 H 
ATOM     96  H1  UNL A   1      13.512  30.476  -1.012  1.00  0.00    +0.000 H 
ENDBRANCH    2    1
BRANCH    2    3
ATOM      3  N1  UNL A   1      15.558  29.482  -2.723  1.00  0.00    +0.000 N 
BRANCH    3    4
ATOM      4  O1  UNL A   1      16.370  28.761  -1.854  1.00  0.00    +0.000 O 
BRANCH    4    5
ATOM     99  H4  UNL A   1      17.779  30.102  -2.458  1.00  0.00    +0.000 H 
ATOM    100  H5  UNL A   1      18.354  28.635  -1.588  1.00  0.00    +0.000 H 
ATOM      5  C3  UNL A   1      17.630  29.420  -1.646  1.00  0.00    +0.000 C 
BRANCH    5    6
ATOM    101  H6  UNL A   1      15.815  30.991  -0.368  1.00  0.00    +0.000 H 
ATOM      6  C4  UNL A   1      17.780  30.203  -0.352  1.00  0.00    +0.000 C 
ATOM      7  C5  UNL A   1      16.726  31.006   0.115  1.00  0.00    +0.000 C 
ATOM      8  C6  UNL A   1      16.905  31.827   1.230  1.00  0.00    +0.000 C 
ATOM    102  H7  UNL A   1      16.121  32.397   1.583  1.00  0.00    +0.000 H 
ATOM     10  C8  UNL A   1      19.189  31.062   1.421  1.00  0.00    +0.000 C 
ATOM     11  C9  UNL A   1      19.001  30.167   0.362  1.00  0.00    +0.000 C 
ATOM    104  H9  UNL A   1      20.112  31.124   1.879  1.00  0.00    +0.000 H 
ATOM      9  C7  UNL A   1      18.143  31.874   1.865  1.00  0.00    +0.000 C 
ATOM    103  H8  UNL A   1      18.287  32.510   2.664  1.00  0.00    +0.000 H 
BRANCH   11   12
ATOM    105  H10 UNL A   1      19.714  28.387  -0.345  1.00  0.00    +0.000 H 
ATOM     12  N2  UNL A   1      20.017  29.290  -0.094  1.00  0.00    +0.000 N 
BRANCH   12   13
ATOM    106  H11 UNL A   1      23.586  30.472  -2.643  1.00  0.00    +0.000 H 
ATOM    107  H12 UNL A   1      25.182  30.015  -0.873  1.00  0.00    +0.000 H 
ATOM    108  H13 UNL A   1      24.401  29.195   1.271  1.00  0.00    +0.000 H 
ATOM     13  C10 UNL A   1      21.405  29.530  -0.240  1.00  0.00    +0.000 C 
ATOM     14  C11 UNL A   1      21.890  29.963  -1.493  1.00  0.00    +0.000 C 
ATOM     15 Cl1  UNL A   1      20.811  30.284  -2.812  1.00  0.00    +0.000 Cl
ATOM     16  C12 UNL A   1      23.257  30.140  -1.723  1.00  0.00    +0.000 C 
ATOM     17  C13 UNL A   1      24.173  29.870  -0.712  1.00  0.00    +0.000 C 
ATOM     18  C14 UNL A   1      23.721  29.404   0.521  1.00  0.00    +0.000 C 
ATOM     19  C15 UNL A   1      22.353  29.216   0.752  1.00  0.00    +0.000 C 
ATOM     20 Cl2  UNL A   1      21.901  28.538   2.278  1.00  0.00    +0.000 Cl
ENDBRANCH   12   13
ENDBRANCH   11   12
ENDBRANCH    5    6
ENDBRANCH    4    5
ENDBRANCH    3    4
ENDBRANCH    2    3
ENDBRANCH   21    2
ENDBRANCH   23   21
ENDBRANCH   24   23
ENDBRANCH   25   24
ENDBRANCH   26   25
ENDBRANCH   27   26
ENDBRANCH   28   27
ENDBRANCH   29   28
ENDBRANCH   30   29
ENDBRANCH   31   30
ENDBRANCH   33   31
ENDBRANCH   37   36
BRANCH   41   42
ATOM     42  C32 UNL A   1      14.138  22.962  -0.942  1.00  0.00    +0.000 C 
ATOM     43  C33 UNL A   1      15.515  23.206  -1.061  1.00  0.00    +0.000 C 
ATOM     44  F1  UNL A   1      16.198  23.737  -0.035  1.00  0.00    +0.000 F 
ATOM     45  C34 UNL A   1      16.189  22.941  -2.250  1.00  0.00    +0.000 C 
ATOM     46  F2  UNL A   1      17.493  23.226  -2.357  1.00  0.00    +0.000 F 
ATOM     47  C35 UNL A   1      15.508  22.396  -3.329  1.00  0.00    +0.000 C 
ATOM     48  F3  UNL A   1      16.161  22.136  -4.471  1.00  0.00    +0.000 F 
ATOM     49  C36 UNL A   1      14.153  22.127  -3.226  1.00  0.00    +0.000 C 
ATOM     50  F4  UNL A   1      13.497  21.589  -4.264  1.00  0.00    +0.000 F 
ATOM     51  C37 UNL A   1      13.470  22.417  -2.047  1.00  0.00    +0.000 C 
ATOM     52  F5  UNL A   1      12.155  22.158  -1.984  1.00  0.00    +0.000 F 
ENDBRANCH   41   42
BRANCH   58   59
ATOM     65  F8  UNL A   1      12.691  15.667   6.750  1.00  0.00    +0.000 F 
ATOM     66  C47 UNL A   1      11.473  17.137   5.359  1.00  0.00    +0.000 C 
ATOM     67  F9  UNL A   1      10.578  16.173   5.101  1.00  0.00    +0.000 F 
ATOM     68  C48 UNL A   1      11.329  18.392   4.776  1.00  0.00    +0.000 C 
ATOM     69  F10 UNL A   1      10.291  18.607   3.952  1.00  0.00    +0.000 F 
ATOM     59  C43 UNL A   1      12.241  19.423   5.047  1.00  0.00    +0.000 C 
ATOM     60  C44 UNL A   1      13.305  19.149   5.918  1.00  0.00    +0.000 C 
ATOM     61  F6  UNL A   1      14.213  20.097   6.195  1.00  0.00    +0.000 F 
ATOM     62  C45 UNL A   1      13.461  17.884   6.479  1.00  0.00    +0.000 C 
ATOM     63  F7  UNL A   1      14.510  17.630   7.274  1.00  0.00    +0.000 F 
ATOM     64  C46 UNL A   1      12.542  16.882   6.205  1.00  0.00    +0.000 C 
ENDBRANCH   58   59
BRANCH   73   74
ATOM     74  C52 UNL A   1       8.901  25.110   7.281  1.00  0.00    +0.000 C 
ATOM     75  C53 UNL A   1       7.504  24.998   7.262  1.00  0.00    +0.000 C 
ATOM     76  F11 UNL A   1       6.879  24.637   6.132  1.00  0.00    +0.000 F 
ATOM     77  C54 UNL A   1       6.742  25.292   8.390  1.00  0.00    +0.000 C 
ATOM     78  F12 UNL A   1       5.406  25.216   8.332  1.00  0.00    +0.000 F 
ATOM     79  C55 UNL A   1       7.364  25.678   9.568  1.00  0.00    +0.000 C 
ATOM     80  F13 UNL A   1       6.632  25.956  10.654  1.00  0.00    +0.000 F 
ATOM     81  C56 UNL A   1       8.747  25.781   9.616  1.00  0.00    +0.000 C 
ATOM     82  F14 UNL A   1       9.352  26.140  10.756  1.00  0.00    +0.000 F 
ATOM     83  C57 UNL A   1       9.508  25.511   8.481  1.00  0.00    +0.000 C 
ATOM     84  F15 UNL A   1      10.842  25.628   8.552  1.00  0.00    +0.000 F 
ENDBRANCH   73   74
TORSDOF 22
ENDMDL
MODEL 10
REMARK VINA RESULT:      -9.4     21.377     26.829
ROOT
ATOM    129  H34 UNL A   1      46.447  48.306  19.755  1.00  0.00    +0.000 H 
ATOM    130  H35 UNL A   1      48.795  51.699  19.248  1.00  0.00    +0.000 H 
ATOM    131  H36 UNL A   1      52.692  51.167  22.378  1.00  0.00    +0.000 H 
ATOM    132  H37 UNL A   1      53.480  53.469  21.582  1.00  0.00    +0.000 H 
ATOM    133  H38 UNL A   1      45.871  53.906  15.036  1.00  0.00    +0.000 H 
ATOM    134  H39 UNL A   1      44.818  51.844  16.128  1.00  0.00    +0.000 H 
ATOM     37  C28 UNL A   1      46.448  50.655  18.141  1.00  0.00    +0.000 C 
ATOM     38  C29 UNL A   1      46.700  51.934  17.391  1.00  0.00    +0.000 C 
ATOM     39  N5  UNL A   1      47.701  52.771  17.494  1.00  0.00    +0.000 N 
ATOM     40  C30 UNL A   1      47.469  53.756  16.544  1.00  0.00    +0.000 C 
ATOM     41  C31 UNL A   1      48.191  54.875  16.292  1.00  0.00    +0.000 C 
ATOM     53  C38 UNL A   1      49.379  55.252  17.012  1.00  0.00    +0.000 C 
ATOM     54  C39 UNL A   1      50.145  56.397  16.876  1.00  0.00    +0.000 C 
ATOM     55  C40 UNL A   1      51.223  56.310  17.763  1.00  0.00    +0.000 C 
ATOM     56  C41 UNL A   1      51.105  55.131  18.482  1.00  0.00    +0.000 C 
ATOM     57  N6  UNL A   1      49.972  54.490  18.008  1.00  0.00    +0.000 N 
ATOM     58  C42 UNL A   1      51.961  54.627  19.525  1.00  0.00    +0.000 C 
ATOM     70  C49 UNL A   1      51.774  53.461  20.190  1.00  0.00    +0.000 C 
ATOM     71  N7  UNL A   1      50.760  52.525  20.041  1.00  0.00    +0.000 N 
ATOM     72  C50 UNL A   1      51.023  51.570  20.899  1.00  0.00    +0.000 C 
ATOM     73  C51 UNL A   1      50.245  50.315  21.189  1.00  0.00    +0.000 C 
ATOM     85  C58 UNL A   1      49.093  50.087  20.531  1.00  0.00    +0.000 C 
ATOM     86  C59 UNL A   1      48.231  48.923  20.712  1.00  0.00    +0.000 C 
ATOM     87  C60 UNL A   1      47.198  49.006  19.856  1.00  0.00    +0.000 C 
ATOM     88  C61 UNL A   1      47.309  50.249  19.092  1.00  0.00    +0.000 C 
ATOM     89  N8  UNL A   1      48.458  50.831  19.567  1.00  0.00    +0.000 N 
ATOM     90  C62 UNL A   1      52.253  51.781  21.673  1.00  0.00    +0.000 C 
ATOM     91  C63 UNL A   1      52.651  52.965  21.231  1.00  0.00    +0.000 C 
ATOM     92  C64 UNL A   1      46.257  53.390  15.842  1.00  0.00    +0.000 C 
ATOM     93  C65 UNL A   1      45.708  52.306  16.370  1.00  0.00    +0.000 C 
ATOM    125  H30 UNL A   1      49.954  57.179  16.231  1.00  0.00    +0.000 H 
ATOM    126  H31 UNL A   1      51.979  57.006  17.865  1.00  0.00    +0.000 H 
ATOM    127  H32 UNL A   1      49.638  53.622  18.331  1.00  0.00    +0.000 H 
ATOM    128  H33 UNL A   1      48.389  48.159  21.386  1.00  0.00    +0.000 H 
ENDROOT
BRANCH   37   36
ATOM     33  C24 UNL A   1      43.134  48.124  17.139  1.00  0.00    +0.000 C 
ATOM     34  C25 UNL A   1      42.941  49.207  18.003  1.00  0.00    +0.000 C 
ATOM     35  C26 UNL A   1      44.011  50.051  18.314  1.00  0.00    +0.000 C 
ATOM     36  C27 UNL A   1      45.288  49.798  17.787  1.00  0.00    +0.000 C 
ATOM    135  H40 UNL A   1      46.402  48.523  16.520  1.00  0.00    +0.000 H 
ATOM    136  H41 UNL A   1      44.505  47.171  15.847  1.00  0.00    +0.000 H 
ATOM    123  H28 UNL A   1      42.009  49.383  18.411  1.00  0.00    +0.000 H 
ATOM    124  H29 UNL A   1      43.862  50.861  18.933  1.00  0.00    +0.000 H 
ATOM     94  C66 UNL A   1      45.465  48.721  16.906  1.00  0.00    +0.000 C 
ATOM     95  C67 UNL A   1      44.384  47.918  16.548  1.00  0.00    +0.000 C 
BRANCH   33   31
ATOM     31  C23 UNL A   1      41.981  47.249  16.821  1.00  0.00    +0.000 C 
ATOM     32  O3  UNL A   1      41.422  47.351  15.738  1.00  0.00    +0.000 O 
BRANCH   31   30
ATOM    122  H27 UNL A   1      41.262  46.679  18.604  1.00  0.00    +0.000 H 
ATOM     30  N4  UNL A   1      41.546  46.318  17.734  1.00  0.00    +0.000 N 
BRANCH   30   29
ATOM    121  H26 UNL A   1      42.357  44.521  17.151  1.00  0.00    +0.000 H 
ATOM     29  C22 UNL A   1      41.448  44.873  17.593  1.00  0.00    +0.000 C 
ATOM    120  H25 UNL A   1      40.605  44.642  16.977  1.00  0.00    +0.000 H 
BRANCH   29   28
ATOM     28  C21 UNL A   1      41.279  44.179  18.943  1.00  0.00    +0.000 C 
ATOM    118  H23 UNL A   1      40.997  44.918  19.664  1.00  0.00    +0.000 H 
ATOM    119  H24 UNL A   1      40.537  43.421  18.799  1.00  0.00    +0.000 H 
BRANCH   28   27
ATOM     27  C20 UNL A   1      42.531  43.459  19.463  1.00  0.00    +0.000 C 
ATOM    116  H21 UNL A   1      42.844  42.762  18.715  1.00  0.00    +0.000 H 
ATOM    117  H22 UNL A   1      43.247  44.227  19.666  1.00  0.00    +0.000 H 
BRANCH   27   26
ATOM     26  C19 UNL A   1      42.353  42.692  20.779  1.00  0.00    +0.000 C 
ATOM    115  H20 UNL A   1      43.274  42.177  20.959  1.00  0.00    +0.000 H 
ATOM    114  H19 UNL A   1      41.520  42.028  20.670  1.00  0.00    +0.000 H 
BRANCH   26   25
ATOM     25  C18 UNL A   1      42.102  43.580  22.000  1.00  0.00    +0.000 C 
ATOM    113  H18 UNL A   1      41.445  44.362  21.682  1.00  0.00    +0.000 H 
ATOM    112  H17 UNL A   1      43.045  43.947  22.347  1.00  0.00    +0.000 H 
BRANCH   25   24
ATOM    110  H15 UNL A   1      41.104  43.586  23.899  1.00  0.00    +0.000 H 
ATOM    111  H16 UNL A   1      40.548  42.341  22.798  1.00  0.00    +0.000 H 
ATOM     24  C17 UNL A   1      41.405  42.862  23.169  1.00  0.00    +0.000 C 
BRANCH   24   23
ATOM    109  H14 UNL A   1      43.096  41.651  23.248  1.00  0.00    +0.000 H 
ATOM     23  N3  UNL A   1      42.311  41.911  23.782  1.00  0.00    +0.000 N 
BRANCH   23   21
ATOM     21  C16 UNL A   1      42.197  41.331  25.027  1.00  0.00    +0.000 C 
ATOM     22  O2  UNL A   1      41.077  41.169  25.508  1.00  0.00    +0.000 O 
BRANCH   21    2
ATOM      2  C2  UNL A   1      43.387  41.062  25.934  1.00  0.00    +0.000 C 
BRANCH    2    1
ATOM      1  C1  UNL A   1      43.211  39.852  26.820  1.00  0.00    +0.000 C 
ATOM     98  H3  UNL A   1      43.098  40.169  27.836  1.00  0.00    +0.000 H 
ATOM     97  H2  UNL A   1      42.340  39.310  26.515  1.00  0.00    +0.000 H 
ATOM     96  H1  UNL A   1      44.072  39.222  26.738  1.00  0.00    +0.000 H 
ENDBRANCH    2    1
BRANCH    2    3
ATOM      3  N1  UNL A   1      44.531  41.682  25.990  1.00  0.00    +0.000 N 
BRANCH    3    4
ATOM      4  O1  UNL A   1      44.446  42.967  26.512  1.00  0.00    +0.000 O 
BRANCH    4    5
ATOM     99  H4  UNL A   1      44.169  44.822  25.718  1.00  0.00    +0.000 H 
ATOM    100  H5  UNL A   1      44.577  43.488  24.580  1.00  0.00    +0.000 H 
ATOM      5  C3  UNL A   1      44.768  43.957  25.521  1.00  0.00    +0.000 C 
BRANCH    5    6
ATOM    101  H6  UNL A   1      46.278  45.158  27.438  1.00  0.00    +0.000 H 
ATOM      6  C4  UNL A   1      46.219  44.406  25.460  1.00  0.00    +0.000 C 
ATOM      7  C5  UNL A   1      46.804  45.064  26.555  1.00  0.00    +0.000 C 
ATOM      8  C6  UNL A   1      48.091  45.593  26.456  1.00  0.00    +0.000 C 
ATOM    102  H7  UNL A   1      48.525  46.054  27.270  1.00  0.00    +0.000 H 
ATOM     10  C8  UNL A   1      48.225  44.824  24.169  1.00  0.00    +0.000 C 
ATOM     11  C9  UNL A   1      46.973  44.209  24.279  1.00  0.00    +0.000 C 
ATOM    104  H9  UNL A   1      48.738  44.781  23.274  1.00  0.00    +0.000 H 
ATOM      9  C7  UNL A   1      48.790  45.496  25.256  1.00  0.00    +0.000 C 
ATOM    103  H8  UNL A   1      49.726  45.921  25.169  1.00  0.00    +0.000 H 
BRANCH   11   12
ATOM    105  H10 UNL A   1      46.021  42.593  23.467  1.00  0.00    +0.000 H 
ATOM     12  N2  UNL A   1      46.380  43.476  23.221  1.00  0.00    +0.000 N 
BRANCH   12   13
ATOM    106  H11 UNL A   1      47.311  42.821  18.823  1.00  0.00    +0.000 H 
ATOM    107  H12 UNL A   1      46.111  44.811  18.126  1.00  0.00    +0.000 H 
ATOM    108  H13 UNL A   1      45.040  46.217  19.787  1.00  0.00    +0.000 H 
ATOM     13  C10 UNL A   1      46.230  43.837  21.859  1.00  0.00    +0.000 C 
ATOM     14  C11 UNL A   1      46.882  43.061  20.877  1.00  0.00    +0.000 C 
ATOM     15 Cl1  UNL A   1      47.781  41.642  21.304  1.00  0.00    +0.000 Cl
ATOM     16  C12 UNL A   1      46.838  43.413  19.525  1.00  0.00    +0.000 C 
ATOM     17  C13 UNL A   1      46.158  44.558  19.125  1.00  0.00    +0.000 C 
ATOM     18  C14 UNL A   1      45.539  45.361  20.081  1.00  0.00    +0.000 C 
ATOM     19  C15 UNL A   1      45.589  45.018  21.438  1.00  0.00    +0.000 C 
ATOM     20 Cl2  UNL A   1      44.879  46.131  22.555  1.00  0.00    +0.000 Cl
ENDBRANCH   12   13
ENDBRANCH   11   12
ENDBRANCH    5    6
ENDBRANCH    4    5
ENDBRANCH    3    4
ENDBRANCH    2    3
ENDBRANCH   21    2
ENDBRANCH   23   21
ENDBRANCH   24   23
ENDBRANCH   25   24
ENDBRANCH   26   25
ENDBRANCH   27   26
ENDBRANCH   28   27
ENDBRANCH   29   28
ENDBRANCH   30   29
ENDBRANCH   31   30
ENDBRANCH   33   31
ENDBRANCH   37   36
BRANCH   41   42
ATOM     42  C32 UNL A   1      47.712  55.777  15.192  1.00  0.00    +0.000 C 
ATOM     43  C33 UNL A   1      46.974  56.939  15.465  1.00  0.00    +0.000 C 
ATOM     44  F1  UNL A   1      46.639  57.245  16.728  1.00  0.00    +0.000 F 
ATOM     45  C34 UNL A   1      46.542  57.772  14.436  1.00  0.00    +0.000 C 
ATOM     46  F2  UNL A   1      45.798  58.850  14.717  1.00  0.00    +0.000 F 
ATOM     47  C35 UNL A   1      46.870  57.479  13.120  1.00  0.00    +0.000 C 
ATOM     48  F3  UNL A   1      46.458  58.286  12.131  1.00  0.00    +0.000 F 
ATOM     49  C36 UNL A   1      47.616  56.348  12.829  1.00  0.00    +0.000 C 
ATOM     50  F4  UNL A   1      47.943  56.072  11.560  1.00  0.00    +0.000 F 
ATOM     51  C37 UNL A   1      48.025  55.498  13.854  1.00  0.00    +0.000 C 
ATOM     52  F5  UNL A   1      48.735  54.404  13.539  1.00  0.00    +0.000 F 
ENDBRANCH   41   42
BRANCH   58   59
ATOM     65  F8  UNL A   1      56.451  57.688  21.065  1.00  0.00    +0.000 F 
ATOM     66  C47 UNL A   1      55.520  55.948  19.768  1.00  0.00    +0.000 C 
ATOM     67  F9  UNL A   1      56.723  55.676  19.244  1.00  0.00    +0.000 F 
ATOM     68  C48 UNL A   1      54.407  55.209  19.374  1.00  0.00    +0.000 C 
ATOM     69  F10 UNL A   1      54.567  54.239  18.462  1.00  0.00    +0.000 F 
ATOM     59  C43 UNL A   1      53.142  55.462  19.924  1.00  0.00    +0.000 C 
ATOM     60  C44 UNL A   1      53.030  56.484  20.878  1.00  0.00    +0.000 C 
ATOM     61  F6  UNL A   1      51.837  56.773  21.421  1.00  0.00    +0.000 F 
ATOM     62  C45 UNL A   1      54.140  57.238  21.250  1.00  0.00    +0.000 C 
ATOM     63  F7  UNL A   1      54.002  58.239  22.131  1.00  0.00    +0.000 F 
ATOM     64  C46 UNL A   1      55.384  56.965  20.701  1.00  0.00    +0.000 C 
ENDBRANCH   58   59
BRANCH   73   74
ATOM     74  C52 UNL A   1      50.715  49.349  22.214  1.00  0.00    +0.000 C 
ATOM     75  C53 UNL A   1      51.616  48.329  21.879  1.00  0.00    +0.000 C 
ATOM     76  F11 UNL A   1      52.044  48.205  20.613  1.00  0.00    +0.000 F 
ATOM     77  C54 UNL A   1      52.053  47.412  22.831  1.00  0.00    +0.000 C 
ATOM     78  F12 UNL A   1      52.882  46.422  22.474  1.00  0.00    +0.000 F 
ATOM     79  C55 UNL A   1      51.617  47.512  24.143  1.00  0.00    +0.000 C 
ATOM     80  F13 UNL A   1      52.040  46.632  25.060  1.00  0.00    +0.000 F 
ATOM     81  C56 UNL A   1      50.738  48.522  24.503  1.00  0.00    +0.000 C 
ATOM     82  F14 UNL A   1      50.325  48.630  25.773  1.00  0.00    +0.000 F 
ATOM     83  C57 UNL A   1      50.281  49.425  23.546  1.00  0.00    +0.000 C 
ATOM     84  F15 UNL A   1      49.423  50.387  23.918  1.00  0.00    +0.000 F 
ENDBRANCH   73   74
TORSDOF 22
ENDMDL
