MODEL 1
REMARK VINA RESULT:     -12.2      0.000      0.000
ROOT
ATOM    129  H35 UNL A   1      53.470  19.041   9.183  1.00  0.00    +0.000 H 
ATOM    130  H36 UNL A   1      55.121  19.584  12.959  1.00  0.00    +0.000 H 
ATOM    131  H37 UNL A   1      59.863  17.964  12.645  1.00  0.00    +0.000 H 
ATOM    132  H38 UNL A   1      60.113  18.652  15.098  1.00  0.00    +0.000 H 
ATOM    133  H39 UNL A   1      50.829  22.490  15.091  1.00  0.00    +0.000 H 
ATOM    134  H40 UNL A   1      50.393  21.388  12.820  1.00  0.00    +0.000 H 
ATOM     36  C30 UNL A   1      52.705  20.187  11.681  1.00  0.00    +0.000 C 
ATOM     37  C31 UNL A   1      52.563  20.772  13.054  1.00  0.00    +0.000 C 
ATOM     38  N4  UNL A   1      53.449  20.863  14.013  1.00  0.00    +0.000 N 
ATOM     39  C32 UNL A   1      52.821  21.553  15.039  1.00  0.00    +0.000 C 
ATOM     40  C33 UNL A   1      53.299  21.848  16.271  1.00  0.00    +0.000 C 
ATOM     52  C40 UNL A   1      54.606  21.468  16.739  1.00  0.00    +0.000 C 
ATOM     53  C41 UNL A   1      55.162  21.650  17.993  1.00  0.00    +0.000 C 
ATOM     54  C42 UNL A   1      56.470  21.149  17.966  1.00  0.00    +0.000 C 
ATOM     55  C43 UNL A   1      56.713  20.621  16.707  1.00  0.00    +0.000 C 
ATOM     56  N5  UNL A   1      55.563  20.825  15.966  1.00  0.00    +0.000 N 
ATOM     57  C44 UNL A   1      57.907  19.978  16.220  1.00  0.00    +0.000 C 
ATOM     69  C51 UNL A   1      58.065  19.454  14.980  1.00  0.00    +0.000 C 
ATOM     70  N6  UNL A   1      57.164  19.421  13.926  1.00  0.00    +0.000 N 
ATOM     71  C52 UNL A   1      57.788  18.826  12.938  1.00  0.00    +0.000 C 
ATOM     72  C53 UNL A   1      57.286  18.514  11.556  1.00  0.00    +0.000 C 
ATOM     84  C60 UNL A   1      56.008  18.797  11.247  1.00  0.00    +0.000 C 
ATOM     85  C61 UNL A   1      55.382  18.565   9.949  1.00  0.00    +0.000 C 
ATOM     86  C62 UNL A   1      54.131  19.048   9.976  1.00  0.00    +0.000 C 
ATOM     87  C63 UNL A   1      53.853  19.589  11.308  1.00  0.00    +0.000 C 
ATOM     88  N7  UNL A   1      55.012  19.363  12.007  1.00  0.00    +0.000 N 
ATOM     89  C64 UNL A   1      59.165  18.422  13.250  1.00  0.00    +0.000 C 
ATOM     90  C65 UNL A   1      59.274  18.801  14.517  1.00  0.00    +0.000 C 
ATOM     91  C66 UNL A   1      51.499  21.904  14.567  1.00  0.00    +0.000 C 
ATOM     92  C67 UNL A   1      51.262  21.377  13.376  1.00  0.00    +0.000 C 
ATOM    125  H31 UNL A   1      54.695  22.080  18.806  1.00  0.00    +0.000 H 
ATOM    126  H32 UNL A   1      57.139  21.169  18.752  1.00  0.00    +0.000 H 
ATOM    127  H33 UNL A   1      55.441  20.555  15.026  1.00  0.00    +0.000 H 
ATOM    128  H34 UNL A   1      55.831  18.105   9.141  1.00  0.00    +0.000 H 
ENDROOT
BRANCH   36   35
ATOM     33  C27 UNL A   1      49.805  19.552   9.329  1.00  0.00    +0.000 C 
ATOM     34  C28 UNL A   1      50.686  19.395  10.399  1.00  0.00    +0.000 C 
ATOM     35  C29 UNL A   1      51.635  20.390  10.678  1.00  0.00    +0.000 C 
ATOM    135  H41 UNL A   1      52.282  22.344  10.184  1.00  0.00    +0.000 H 
ATOM    136  H42 UNL A   1      50.596  22.701   8.480  1.00  0.00    +0.000 H 
ATOM    123  H29 UNL A   1      49.128  18.808   9.097  1.00  0.00    +0.000 H 
ATOM    124  H30 UNL A   1      50.640  18.547  10.985  1.00  0.00    +0.000 H 
ATOM     93  C68 UNL A   1      51.606  21.596   9.960  1.00  0.00    +0.000 C 
ATOM     94  C69 UNL A   1      50.675  21.787   8.950  1.00  0.00    +0.000 C 
ATOM     32  C26 UNL A   1      49.845  20.728   8.576  1.00  0.00    +0.000 C 
BRANCH   32   30
ATOM     30  C25 UNL A   1      49.059  20.805   7.329  1.00  0.00    +0.000 C 
ATOM     31  O3  UNL A   1      48.707  21.891   6.895  1.00  0.00    +0.000 O 
BRANCH   30   29
ATOM    122  H28 UNL A   1      49.453  19.074   6.401  1.00  0.00    +0.000 H 
ATOM     29  N3  UNL A   1      48.701  19.634   6.701  1.00  0.00    +0.000 N 
BRANCH   29   28
ATOM    121  H27 UNL A   1      47.010  19.610   5.546  1.00  0.00    +0.000 H 
ATOM     28  C24 UNL A   1      47.375  19.098   6.411  1.00  0.00    +0.000 C 
ATOM    120  H26 UNL A   1      46.753  19.254   7.267  1.00  0.00    +0.000 H 
BRANCH   28   27
ATOM     27  C23 UNL A   1      47.381  17.608   6.083  1.00  0.00    +0.000 C 
ATOM    118  H24 UNL A   1      48.274  17.178   6.488  1.00  0.00    +0.000 H 
ATOM    119  H25 UNL A   1      46.490  17.197   6.513  1.00  0.00    +0.000 H 
BRANCH   27   26
ATOM     26  C22 UNL A   1      47.332  17.290   4.595  1.00  0.00    +0.000 C 
ATOM    116  H22 UNL A   1      48.306  16.965   4.294  1.00  0.00    +0.000 H 
ATOM    117  H23 UNL A   1      46.574  16.543   4.478  1.00  0.00    +0.000 H 
BRANCH   26   25
ATOM     25  C21 UNL A   1      46.922  18.448   3.687  1.00  0.00    +0.000 C 
ATOM    114  H20 UNL A   1      46.713  19.297   4.303  1.00  0.00    +0.000 H 
ATOM    115  H21 UNL A   1      47.738  18.609   3.014  1.00  0.00    +0.000 H 
BRANCH   25   24
ATOM    113  H19 UNL A   1      45.684  17.118   2.630  1.00  0.00    +0.000 H 
ATOM    112  H18 UNL A   1      45.770  18.758   1.929  1.00  0.00    +0.000 H 
ATOM     24  C20 UNL A   1      45.690  18.171   2.820  1.00  0.00    +0.000 C 
BRANCH   24   23
ATOM    111  H17 UNL A   1      44.419  18.225   4.522  1.00  0.00    +0.000 H 
ATOM    110  H16 UNL A   1      43.576  17.953   3.000  1.00  0.00    +0.000 H 
ATOM     23  C19 UNL A   1      44.354  18.499   3.490  1.00  0.00    +0.000 C 
BRANCH   23   22
ATOM    109  H15 UNL A   1      44.201  20.469   4.214  1.00  0.00    +0.000 H 
ATOM     22  N2  UNL A   1      44.056  19.915   3.413  1.00  0.00    +0.000 N 
BRANCH   22    2
ATOM      1  O1  UNL A   1      43.926  21.638   1.905  1.00  0.00    +0.000 O 
ATOM      2  C1  UNL A   1      43.582  20.522   2.279  1.00  0.00    +0.000 C 
BRANCH    2    3
ATOM      3  C2  UNL A   1      42.566  19.700   1.516  1.00  0.00    +0.000 C 
ATOM     95  H1  UNL A   1      41.901  19.238   2.215  1.00  0.00    +0.000 H 
ATOM     96  H2  UNL A   1      43.099  18.969   0.943  1.00  0.00    +0.000 H 
BRANCH    3    4
ATOM     97  H3  UNL A   1      41.801  20.077  -0.414  1.00  0.00    +0.000 H 
ATOM     98  H4  UNL A   1      42.180  21.521   0.588  1.00  0.00    +0.000 H 
ATOM      4  C3  UNL A   1      41.750  20.543   0.549  1.00  0.00    +0.000 C 
BRANCH    4    5
ATOM      5  C4  UNL A   1      40.306  20.728   0.887  1.00  0.00    +0.000 C 
ATOM      6  N1  UNL A   1      39.717  20.408   2.024  1.00  0.00    +0.000 N 
ATOM      7  C5  UNL A   1      38.407  20.760   1.830  1.00  0.00    +0.000 C 
ATOM     14  C12 UNL A   1      38.249  21.338   0.585  1.00  0.00    +0.000 C 
ATOM     21  O2  UNL A   1      39.469  21.301  -0.045  1.00  0.00    +0.000 O 
BRANCH    7    8
ATOM     99  H5  UNL A   1      37.254  22.719   3.255  1.00  0.00    +0.000 H 
ATOM    100  H6  UNL A   1      35.842  22.464   5.211  1.00  0.00    +0.000 H 
ATOM    101  H7  UNL A   1      35.092  20.257   5.881  1.00  0.00    +0.000 H 
ATOM    102  H8  UNL A   1      35.685  18.317   4.551  1.00  0.00    +0.000 H 
ATOM    103  H9  UNL A   1      37.116  18.563   2.606  1.00  0.00    +0.000 H 
ATOM      8  C6  UNL A   1      37.354  20.651   2.818  1.00  0.00    +0.000 C 
ATOM      9  C7  UNL A   1      36.944  21.779   3.548  1.00  0.00    +0.000 C 
ATOM     10  C8  UNL A   1      36.123  21.635   4.665  1.00  0.00    +0.000 C 
ATOM     11  C9  UNL A   1      35.682  20.368   5.041  1.00  0.00    +0.000 C 
ATOM     12  C10 UNL A   1      36.037  19.250   4.285  1.00  0.00    +0.000 C 
ATOM     13  C11 UNL A   1      36.865  19.390   3.170  1.00  0.00    +0.000 C 
ENDBRANCH    7    8
BRANCH   14   15
ATOM    104  H10 UNL A   1      35.596  21.006   0.974  1.00  0.00    +0.000 H 
ATOM    105  H11 UNL A   1      33.786  22.237  -0.074  1.00  0.00    +0.000 H 
ATOM    106  H12 UNL A   1      34.261  23.938  -1.734  1.00  0.00    +0.000 H 
ATOM    107  H13 UNL A   1      36.552  24.367  -2.408  1.00  0.00    +0.000 H 
ATOM    108  H14 UNL A   1      38.360  23.126  -1.384  1.00  0.00    +0.000 H 
ATOM     15  C13 UNL A   1      37.133  21.981  -0.095  1.00  0.00    +0.000 C 
ATOM     16  C14 UNL A   1      35.806  21.723   0.263  1.00  0.00    +0.000 C 
ATOM     17  C15 UNL A   1      34.763  22.433  -0.342  1.00  0.00    +0.000 C 
ATOM     18  C16 UNL A   1      35.034  23.406  -1.305  1.00  0.00    +0.000 C 
ATOM     19  C17 UNL A   1      36.347  23.657  -1.687  1.00  0.00    +0.000 C 
ATOM     20  C18 UNL A   1      37.387  22.944  -1.091  1.00  0.00    +0.000 C 
ENDBRANCH   14   15
ENDBRANCH    4    5
ENDBRANCH    3    4
ENDBRANCH    2    3
ENDBRANCH   22    2
ENDBRANCH   23   22
ENDBRANCH   24   23
ENDBRANCH   25   24
ENDBRANCH   26   25
ENDBRANCH   27   26
ENDBRANCH   28   27
ENDBRANCH   29   28
ENDBRANCH   30   29
ENDBRANCH   32   30
ENDBRANCH   36   35
BRANCH   40   41
ATOM     41  C34 UNL A   1      52.396  22.614  17.192  1.00  0.00    +0.000 C 
ATOM     42  C35 UNL A   1      51.595  21.963  18.144  1.00  0.00    +0.000 C 
ATOM     43  F1  UNL A   1      51.615  20.625  18.241  1.00  0.00    +0.000 F 
ATOM     44  C36 UNL A   1      50.731  22.682  18.966  1.00  0.00    +0.000 C 
ATOM     45  F2  UNL A   1      49.930  22.033  19.824  1.00  0.00    +0.000 F 
ATOM     46  C37 UNL A   1      50.678  24.064  18.879  1.00  0.00    +0.000 C 
ATOM     47  F3  UNL A   1      49.841  24.754  19.668  1.00  0.00    +0.000 F 
ATOM     48  C38 UNL A   1      51.482  24.730  17.968  1.00  0.00    +0.000 C 
ATOM     49  F4  UNL A   1      51.438  26.068  17.890  1.00  0.00    +0.000 F 
ATOM     50  C39 UNL A   1      52.327  24.013  17.123  1.00  0.00    +0.000 C 
ATOM     51  F5  UNL A   1      53.072  24.685  16.234  1.00  0.00    +0.000 F 
ENDBRANCH   40   41
BRANCH   57   58
ATOM     65  C49 UNL A   1      60.360  18.561  18.756  1.00  0.00    +0.000 C 
ATOM     66  F9  UNL A   1      60.566  17.412  19.412  1.00  0.00    +0.000 F 
ATOM     67  C50 UNL A   1      59.316  18.661  17.842  1.00  0.00    +0.000 C 
ATOM     68  F10 UNL A   1      58.538  17.590  17.629  1.00  0.00    +0.000 F 
ATOM     58  C45 UNL A   1      59.068  19.863  17.161  1.00  0.00    +0.000 C 
ATOM     59  C46 UNL A   1      59.908  20.955  17.421  1.00  0.00    +0.000 C 
ATOM     60  F6  UNL A   1      59.719  22.119  16.780  1.00  0.00    +0.000 F 
ATOM     61  C47 UNL A   1      60.965  20.844  18.319  1.00  0.00    +0.000 C 
ATOM     62  F7  UNL A   1      61.778  21.890  18.526  1.00  0.00    +0.000 F 
ATOM     63  C48 UNL A   1      61.186  19.650  18.991  1.00  0.00    +0.000 C 
ATOM     64  F8  UNL A   1      62.201  19.548  19.861  1.00  0.00    +0.000 F 
ENDBRANCH   57   58
BRANCH   72   73
ATOM     73  C54 UNL A   1      58.163  17.880  10.541  1.00  0.00    +0.000 C 
ATOM     74  C55 UNL A   1      58.957  18.662   9.691  1.00  0.00    +0.000 C 
ATOM     75  F11 UNL A   1      58.890  20.000   9.757  1.00  0.00    +0.000 F 
ATOM     76  C56 UNL A   1      59.806  18.075   8.756  1.00  0.00    +0.000 C 
ATOM     77  F12 UNL A   1      60.535  18.845   7.938  1.00  0.00    +0.000 F 
ATOM     78  C57 UNL A   1      59.894  16.694   8.668  1.00  0.00    +0.000 C 
ATOM     79  F13 UNL A   1      60.720  16.128   7.777  1.00  0.00    +0.000 F 
ATOM     80  C58 UNL A   1      59.122  15.899   9.502  1.00  0.00    +0.000 C 
ATOM     81  F14 UNL A   1      59.216  14.564   9.431  1.00  0.00    +0.000 F 
ATOM     82  C59 UNL A   1      58.256  16.486  10.423  1.00  0.00    +0.000 C 
ATOM     83  F15 UNL A   1      57.524  15.694  11.219  1.00  0.00    +0.000 F 
ENDBRANCH   72   73
TORSDOF 19
ENDMDL
MODEL 2
REMARK VINA RESULT:     -12.1      0.499      2.051
ROOT
ATOM    129  H35 UNL A   1      53.484  19.125   9.114  1.00  0.00    +0.000 H 
ATOM    130  H36 UNL A   1      55.124  19.649  12.897  1.00  0.00    +0.000 H 
ATOM    131  H37 UNL A   1      59.847  17.970  12.605  1.00  0.00    +0.000 H 
ATOM    132  H38 UNL A   1      60.094  18.656  15.060  1.00  0.00    +0.000 H 
ATOM    133  H39 UNL A   1      50.857  22.607  15.008  1.00  0.00    +0.000 H 
ATOM    134  H40 UNL A   1      50.418  21.510  12.736  1.00  0.00    +0.000 H 
ATOM     36  C30 UNL A   1      52.722  20.281  11.608  1.00  0.00    +0.000 C 
ATOM     37  C31 UNL A   1      52.580  20.868  12.980  1.00  0.00    +0.000 C 
ATOM     38  N4  UNL A   1      53.463  20.948  13.943  1.00  0.00    +0.000 N 
ATOM     39  C32 UNL A   1      52.838  21.646  14.966  1.00  0.00    +0.000 C 
ATOM     40  C33 UNL A   1      53.314  21.935  16.201  1.00  0.00    +0.000 C 
ATOM     52  C40 UNL A   1      54.614  21.539  16.675  1.00  0.00    +0.000 C 
ATOM     53  C41 UNL A   1      55.166  21.715  17.931  1.00  0.00    +0.000 C 
ATOM     54  C42 UNL A   1      56.468  21.198  17.910  1.00  0.00    +0.000 C 
ATOM     55  C43 UNL A   1      56.710  20.666  16.653  1.00  0.00    +0.000 C 
ATOM     56  N5  UNL A   1      55.566  20.885  15.906  1.00  0.00    +0.000 N 
ATOM     57  C44 UNL A   1      57.899  20.009  16.171  1.00  0.00    +0.000 C 
ATOM     69  C51 UNL A   1      58.057  19.483  14.932  1.00  0.00    +0.000 C 
ATOM     70  N6  UNL A   1      57.160  19.461  13.874  1.00  0.00    +0.000 N 
ATOM     71  C52 UNL A   1      57.781  18.858  12.889  1.00  0.00    +0.000 C 
ATOM     72  C53 UNL A   1      57.282  18.552  11.505  1.00  0.00    +0.000 C 
ATOM     84  C60 UNL A   1      56.009  18.850  11.189  1.00  0.00    +0.000 C 
ATOM     85  C61 UNL A   1      55.387  18.626   9.888  1.00  0.00    +0.000 C 
ATOM     86  C62 UNL A   1      54.141  19.125   9.910  1.00  0.00    +0.000 C 
ATOM     87  C63 UNL A   1      53.864  19.668  11.241  1.00  0.00    +0.000 C 
ATOM     88  N7  UNL A   1      55.017  19.428  11.944  1.00  0.00    +0.000 N 
ATOM     89  C64 UNL A   1      59.151  18.437  13.208  1.00  0.00    +0.000 C 
ATOM     90  C65 UNL A   1      59.259  18.815  14.474  1.00  0.00    +0.000 C 
ATOM     91  C66 UNL A   1      51.523  22.013  14.488  1.00  0.00    +0.000 C 
ATOM     92  C67 UNL A   1      51.285  21.489  13.295  1.00  0.00    +0.000 C 
ATOM    125  H31 UNL A   1      54.701  22.150  18.741  1.00  0.00    +0.000 H 
ATOM    126  H32 UNL A   1      57.133  21.209  18.699  1.00  0.00    +0.000 H 
ATOM    127  H33 UNL A   1      55.446  20.616  14.965  1.00  0.00    +0.000 H 
ATOM    128  H34 UNL A   1      55.834  18.161   9.082  1.00  0.00    +0.000 H 
ENDROOT
BRANCH   36   35
ATOM     33  C27 UNL A   1      49.852  19.672   9.212  1.00  0.00    +0.000 C 
ATOM     34  C28 UNL A   1      50.724  19.497  10.286  1.00  0.00    +0.000 C 
ATOM     35  C29 UNL A   1      51.658  20.497  10.599  1.00  0.00    +0.000 C 
ATOM    135  H41 UNL A   1      52.286  22.470  10.162  1.00  0.00    +0.000 H 
ATOM    136  H42 UNL A   1      50.612  22.851   8.451  1.00  0.00    +0.000 H 
ATOM    123  H29 UNL A   1      49.186  18.926   8.954  1.00  0.00    +0.000 H 
ATOM    124  H30 UNL A   1      50.683  18.634  10.850  1.00  0.00    +0.000 H 
ATOM     93  C68 UNL A   1      51.622  21.720   9.912  1.00  0.00    +0.000 C 
ATOM     94  C69 UNL A   1      50.698  21.926   8.898  1.00  0.00    +0.000 C 
ATOM     32  C26 UNL A   1      49.885  20.867   8.489  1.00  0.00    +0.000 C 
BRANCH   32   30
ATOM     30  C25 UNL A   1      49.110  20.967   7.237  1.00  0.00    +0.000 C 
ATOM     31  O3  UNL A   1      48.244  21.819   7.121  1.00  0.00    +0.000 O 
BRANCH   30   29
ATOM    122  H28 UNL A   1      50.310  19.893   6.045  1.00  0.00    +0.000 H 
ATOM     29  N3  UNL A   1      49.357  20.057   6.233  1.00  0.00    +0.000 N 
BRANCH   29   28
ATOM    121  H27 UNL A   1      49.004  18.665   4.774  1.00  0.00    +0.000 H 
ATOM     28  C24 UNL A   1      48.422  19.302   5.407  1.00  0.00    +0.000 C 
ATOM    120  H26 UNL A   1      47.828  19.995   4.849  1.00  0.00    +0.000 H 
BRANCH   28   27
ATOM     27  C23 UNL A   1      47.487  18.404   6.213  1.00  0.00    +0.000 C 
ATOM    118  H24 UNL A   1      48.078  17.659   6.704  1.00  0.00    +0.000 H 
ATOM    119  H25 UNL A   1      46.967  19.042   6.898  1.00  0.00    +0.000 H 
BRANCH   27   26
ATOM     26  C22 UNL A   1      46.424  17.698   5.383  1.00  0.00    +0.000 C 
ATOM    116  H22 UNL A   1      46.384  16.675   5.697  1.00  0.00    +0.000 H 
ATOM    117  H23 UNL A   1      45.514  18.236   5.553  1.00  0.00    +0.000 H 
BRANCH   26   25
ATOM     25  C21 UNL A   1      46.645  17.718   3.872  1.00  0.00    +0.000 C 
ATOM    114  H20 UNL A   1      47.005  18.688   3.600  1.00  0.00    +0.000 H 
ATOM    115  H21 UNL A   1      47.344  16.936   3.658  1.00  0.00    +0.000 H 
BRANCH   25   24
ATOM    113  H19 UNL A   1      45.136  16.401   3.233  1.00  0.00    +0.000 H 
ATOM    112  H18 UNL A   1      45.621  17.612   2.014  1.00  0.00    +0.000 H 
ATOM     24  C20 UNL A   1      45.393  17.422   3.042  1.00  0.00    +0.000 C 
BRANCH   24   23
ATOM    111  H17 UNL A   1      44.036  18.199   4.481  1.00  0.00    +0.000 H 
ATOM    110  H16 UNL A   1      43.311  17.869   2.910  1.00  0.00    +0.000 H 
ATOM     23  C19 UNL A   1      44.167  18.256   3.421  1.00  0.00    +0.000 C 
BRANCH   23   22
ATOM    109  H15 UNL A   1      44.846  20.232   3.669  1.00  0.00    +0.000 H 
ATOM     22  N2  UNL A   1      44.341  19.649   3.058  1.00  0.00    +0.000 N 
BRANCH   22    2
ATOM      1  O1  UNL A   1      44.429  21.020   1.222  1.00  0.00    +0.000 O 
ATOM      2  C1  UNL A   1      43.836  20.193   1.906  1.00  0.00    +0.000 C 
BRANCH    2    3
ATOM      3  C2  UNL A   1      42.451  19.700   1.543  1.00  0.00    +0.000 C 
ATOM     95  H1  UNL A   1      41.822  19.775   2.406  1.00  0.00    +0.000 H 
ATOM     96  H2  UNL A   1      42.541  18.686   1.212  1.00  0.00    +0.000 H 
BRANCH    3    4
ATOM     97  H3  UNL A   1      41.922  19.930  -0.486  1.00  0.00    +0.000 H 
ATOM     98  H4  UNL A   1      42.359  21.434   0.398  1.00  0.00    +0.000 H 
ATOM      4  C3  UNL A   1      41.829  20.505   0.413  1.00  0.00    +0.000 C 
BRANCH    4    5
ATOM      5  C4  UNL A   1      40.389  20.869   0.573  1.00  0.00    +0.000 C 
ATOM      6  N1  UNL A   1      39.617  21.441  -0.332  1.00  0.00    +0.000 N 
ATOM      7  C5  UNL A   1      38.407  21.572   0.299  1.00  0.00    +0.000 C 
ATOM     14  C12 UNL A   1      38.469  21.021   1.566  1.00  0.00    +0.000 C 
ATOM     21  O2  UNL A   1      39.756  20.583   1.763  1.00  0.00    +0.000 O 
BRANCH    7    8
ATOM     99  H5  UNL A   1      36.003  20.403   0.076  1.00  0.00    +0.000 H 
ATOM    100  H6  UNL A   1      34.157  21.118  -1.325  1.00  0.00    +0.000 H 
ATOM    101  H7  UNL A   1      34.269  23.250  -2.477  1.00  0.00    +0.000 H 
ATOM    102  H8  UNL A   1      36.187  24.701  -2.163  1.00  0.00    +0.000 H 
ATOM    103  H9  UNL A   1      38.047  23.980  -0.780  1.00  0.00    +0.000 H 
ATOM      8  C6  UNL A   1      37.202  22.105  -0.299  1.00  0.00    +0.000 C 
ATOM      9  C7  UNL A   1      36.055  21.305  -0.424  1.00  0.00    +0.000 C 
ATOM     10  C8  UNL A   1      34.988  21.720  -1.219  1.00  0.00    +0.000 C 
ATOM     11  C9  UNL A   1      35.048  22.950  -1.869  1.00  0.00    +0.000 C 
ATOM     12  C10 UNL A   1      36.159  23.778  -1.702  1.00  0.00    +0.000 C 
ATOM     13  C11 UNL A   1      37.233  23.362  -0.912  1.00  0.00    +0.000 C 
ENDBRANCH    7    8
BRANCH   14   15
ATOM    104  H10 UNL A   1      37.505  18.676   2.499  1.00  0.00    +0.000 H 
ATOM    105  H11 UNL A   1      35.992  18.341   4.366  1.00  0.00    +0.000 H 
ATOM    106  H12 UNL A   1      35.105  20.243   5.580  1.00  0.00    +0.000 H 
ATOM    107  H13 UNL A   1      35.672  22.496   4.885  1.00  0.00    +0.000 H 
ATOM    108  H14 UNL A   1      37.162  22.837   3.008  1.00  0.00    +0.000 H 
ATOM     15  C13 UNL A   1      37.485  20.784   2.613  1.00  0.00    +0.000 C 
ATOM     16  C14 UNL A   1      37.126  19.491   3.005  1.00  0.00    +0.000 C 
ATOM     17  C15 UNL A   1      36.253  19.298   4.082  1.00  0.00    +0.000 C 
ATOM     18  C16 UNL A   1      35.734  20.392   4.776  1.00  0.00    +0.000 C 
ATOM     19  C17 UNL A   1      36.064  21.684   4.382  1.00  0.00    +0.000 C 
ATOM     20  C18 UNL A   1      36.927  21.876   3.304  1.00  0.00    +0.000 C 
ENDBRANCH   14   15
ENDBRANCH    4    5
ENDBRANCH    3    4
ENDBRANCH    2    3
ENDBRANCH   22    2
ENDBRANCH   23   22
ENDBRANCH   24   23
ENDBRANCH   25   24
ENDBRANCH   26   25
ENDBRANCH   27   26
ENDBRANCH   28   27
ENDBRANCH   29   28
ENDBRANCH   30   29
ENDBRANCH   32   30
ENDBRANCH   36   35
BRANCH   40   41
ATOM     41  C34 UNL A   1      52.416  22.712  17.117  1.00  0.00    +0.000 C 
ATOM     42  C35 UNL A   1      51.603  22.071  18.066  1.00  0.00    +0.000 C 
ATOM     43  F1  UNL A   1      51.605  20.733  18.162  1.00  0.00    +0.000 F 
ATOM     44  C36 UNL A   1      50.743  22.800  18.882  1.00  0.00    +0.000 C 
ATOM     45  F2  UNL A   1      49.931  22.161  19.737  1.00  0.00    +0.000 F 
ATOM     46  C37 UNL A   1      50.708  24.183  18.796  1.00  0.00    +0.000 C 
ATOM     47  F3  UNL A   1      49.876  24.883  19.581  1.00  0.00    +0.000 F 
ATOM     48  C38 UNL A   1      51.524  24.839  17.888  1.00  0.00    +0.000 C 
ATOM     49  F4  UNL A   1      51.497  26.178  17.811  1.00  0.00    +0.000 F 
ATOM     50  C39 UNL A   1      52.364  24.112  17.048  1.00  0.00    +0.000 C 
ATOM     51  F5  UNL A   1      53.122  24.775  16.162  1.00  0.00    +0.000 F 
ENDBRANCH   40   41
BRANCH   57   58
ATOM     65  C49 UNL A   1      60.327  18.560  18.714  1.00  0.00    +0.000 C 
ATOM     66  F9  UNL A   1      60.520  17.406  19.365  1.00  0.00    +0.000 F 
ATOM     67  C50 UNL A   1      59.289  18.673  17.795  1.00  0.00    +0.000 C 
ATOM     68  F10 UNL A   1      58.503  17.609  17.572  1.00  0.00    +0.000 F 
ATOM     58  C45 UNL A   1      59.054  19.880  17.118  1.00  0.00    +0.000 C 
ATOM     59  C46 UNL A   1      59.901  20.964  17.387  1.00  0.00    +0.000 C 
ATOM     60  F6  UNL A   1      59.726  22.132  16.751  1.00  0.00    +0.000 F 
ATOM     61  C47 UNL A   1      60.953  20.840  18.290  1.00  0.00    +0.000 C 
ATOM     62  F7  UNL A   1      61.774  21.878  18.507  1.00  0.00    +0.000 F 
ATOM     63  C48 UNL A   1      61.161  19.641  18.957  1.00  0.00    +0.000 C 
ATOM     64  F8  UNL A   1      62.170  19.527  19.832  1.00  0.00    +0.000 F 
ENDBRANCH   57   58
BRANCH   72   73
ATOM     73  C54 UNL A   1      58.156  17.907  10.493  1.00  0.00    +0.000 C 
ATOM     74  C55 UNL A   1      59.005  18.676   9.686  1.00  0.00    +0.000 C 
ATOM     75  F11 UNL A   1      58.994  20.013   9.787  1.00  0.00    +0.000 F 
ATOM     76  C56 UNL A   1      59.851  18.077   8.755  1.00  0.00    +0.000 C 
ATOM     77  F12 UNL A   1      60.633  18.835   7.977  1.00  0.00    +0.000 F 
ATOM     78  C57 UNL A   1      59.881  16.696   8.631  1.00  0.00    +0.000 C 
ATOM     79  F13 UNL A   1      60.703  16.118   7.745  1.00  0.00    +0.000 F 
ATOM     80  C58 UNL A   1      59.054  15.914   9.424  1.00  0.00    +0.000 C 
ATOM     81  F14 UNL A   1      59.091  14.579   9.317  1.00  0.00    +0.000 F 
ATOM     82  C59 UNL A   1      58.191  16.514  10.339  1.00  0.00    +0.000 C 
ATOM     83  F15 UNL A   1      57.405  15.735  11.095  1.00  0.00    +0.000 F 
ENDBRANCH   72   73
TORSDOF 19
ENDMDL
MODEL 3
REMARK VINA RESULT:     -11.8      0.706      1.581
ROOT
ATOM    129  H35 UNL A   1      53.418  19.086   9.247  1.00  0.00    +0.000 H 
ATOM    130  H36 UNL A   1      55.089  19.641  13.012  1.00  0.00    +0.000 H 
ATOM    131  H37 UNL A   1      59.829  18.018  12.679  1.00  0.00    +0.000 H 
ATOM    132  H38 UNL A   1      60.091  18.713  15.129  1.00  0.00    +0.000 H 
ATOM    133  H39 UNL A   1      50.809  22.554  15.158  1.00  0.00    +0.000 H 
ATOM    134  H40 UNL A   1      50.360  21.446  12.892  1.00  0.00    +0.000 H 
ATOM     36  C30 UNL A   1      52.667  20.241  11.745  1.00  0.00    +0.000 C 
ATOM     37  C31 UNL A   1      52.532  20.830  13.117  1.00  0.00    +0.000 C 
ATOM     38  N4  UNL A   1      53.423  20.923  14.071  1.00  0.00    +0.000 N 
ATOM     39  C32 UNL A   1      52.800  21.616  15.099  1.00  0.00    +0.000 C 
ATOM     40  C33 UNL A   1      53.285  21.915  16.327  1.00  0.00    +0.000 C 
ATOM     52  C40 UNL A   1      54.594  21.536  16.790  1.00  0.00    +0.000 C 
ATOM     53  C41 UNL A   1      55.156  21.722  18.040  1.00  0.00    +0.000 C 
ATOM     54  C42 UNL A   1      56.464  21.220  18.008  1.00  0.00    +0.000 C 
ATOM     55  C43 UNL A   1      56.700  20.688  16.749  1.00  0.00    +0.000 C 
ATOM     56  N5  UNL A   1      55.546  20.891  16.013  1.00  0.00    +0.000 N 
ATOM     57  C44 UNL A   1      57.891  20.044  16.258  1.00  0.00    +0.000 C 
ATOM     69  C51 UNL A   1      58.043  19.516  15.019  1.00  0.00    +0.000 C 
ATOM     70  N6  UNL A   1      57.137  19.480  13.969  1.00  0.00    +0.000 N 
ATOM     71  C52 UNL A   1      57.755  18.881  12.980  1.00  0.00    +0.000 C 
ATOM     72  C53 UNL A   1      57.246  18.566  11.602  1.00  0.00    +0.000 C 
ATOM     84  C60 UNL A   1      55.967  18.848  11.298  1.00  0.00    +0.000 C 
ATOM     85  C61 UNL A   1      55.335  18.613  10.004  1.00  0.00    +0.000 C 
ATOM     86  C62 UNL A   1      54.083  19.096  10.036  1.00  0.00    +0.000 C 
ATOM     87  C63 UNL A   1      53.812  19.641  11.368  1.00  0.00    +0.000 C 
ATOM     88  N7  UNL A   1      54.975  19.416  12.061  1.00  0.00    +0.000 N 
ATOM     89  C64 UNL A   1      59.133  18.478  13.287  1.00  0.00    +0.000 C 
ATOM     90  C65 UNL A   1      59.249  18.861  14.551  1.00  0.00    +0.000 C 
ATOM     91  C66 UNL A   1      51.476  21.967  14.632  1.00  0.00    +0.000 C 
ATOM     92  C67 UNL A   1      51.232  21.436  13.443  1.00  0.00    +0.000 C 
ATOM    125  H31 UNL A   1      54.694  22.154  18.854  1.00  0.00    +0.000 H 
ATOM    126  H32 UNL A   1      57.137  21.242  18.790  1.00  0.00    +0.000 H 
ATOM    127  H33 UNL A   1      55.420  20.618  15.075  1.00  0.00    +0.000 H 
ATOM    128  H34 UNL A   1      55.779  18.150   9.195  1.00  0.00    +0.000 H 
ENDROOT
BRANCH   36   35
ATOM     33  C27 UNL A   1      49.639  19.656   9.545  1.00  0.00    +0.000 C 
ATOM     34  C28 UNL A   1      50.533  19.529  10.608  1.00  0.00    +0.000 C 
ATOM     35  C29 UNL A   1      51.591  20.441  10.747  1.00  0.00    +0.000 C 
ATOM    135  H41 UNL A   1      52.425  22.242  10.010  1.00  0.00    +0.000 H 
ATOM    136  H42 UNL A   1      50.730  22.580   8.310  1.00  0.00    +0.000 H 
ATOM    123  H29 UNL A   1      48.880  18.968   9.417  1.00  0.00    +0.000 H 
ATOM    124  H30 UNL A   1      50.417  18.765  11.292  1.00  0.00    +0.000 H 
ATOM     93  C68 UNL A   1      51.667  21.551   9.891  1.00  0.00    +0.000 C 
ATOM     94  C69 UNL A   1      50.728  21.723   8.885  1.00  0.00    +0.000 C 
ATOM     32  C26 UNL A   1      49.779  20.725   8.657  1.00  0.00    +0.000 C 
BRANCH   32   30
ATOM     30  C25 UNL A   1      48.964  20.742   7.425  1.00  0.00    +0.000 C 
ATOM     31  O3  UNL A   1      49.021  21.699   6.669  1.00  0.00    +0.000 O 
BRANCH   30   29
ATOM    122  H28 UNL A   1      47.987  19.071   7.937  1.00  0.00    +0.000 H 
ATOM     29  N3  UNL A   1      48.118  19.685   7.179  1.00  0.00    +0.000 N 
BRANCH   29   28
ATOM    121  H27 UNL A   1      48.116  19.154   5.201  1.00  0.00    +0.000 H 
ATOM     28  C24 UNL A   1      47.389  19.336   5.965  1.00  0.00    +0.000 C 
ATOM    120  H26 UNL A   1      46.736  20.147   5.718  1.00  0.00    +0.000 H 
BRANCH   28   27
ATOM     27  C23 UNL A   1      46.552  18.067   6.101  1.00  0.00    +0.000 C 
ATOM    118  H24 UNL A   1      46.292  17.946   7.132  1.00  0.00    +0.000 H 
ATOM    119  H25 UNL A   1      45.698  18.195   5.469  1.00  0.00    +0.000 H 
BRANCH   27   26
ATOM     26  C22 UNL A   1      47.253  16.798   5.634  1.00  0.00    +0.000 C 
ATOM    116  H22 UNL A   1      48.045  17.082   4.973  1.00  0.00    +0.000 H 
ATOM    117  H23 UNL A   1      47.590  16.305   6.523  1.00  0.00    +0.000 H 
BRANCH   26   25
ATOM     25  C21 UNL A   1      46.370  15.788   4.904  1.00  0.00    +0.000 C 
ATOM    114  H20 UNL A   1      46.815  14.821   5.005  1.00  0.00    +0.000 H 
ATOM    115  H21 UNL A   1      45.401  15.853   5.353  1.00  0.00    +0.000 H 
BRANCH   25   24
ATOM    113  H19 UNL A   1      45.133  15.964   3.213  1.00  0.00    +0.000 H 
ATOM    112  H18 UNL A   1      46.785  15.386   2.860  1.00  0.00    +0.000 H 
ATOM     24  C20 UNL A   1      46.179  16.074   3.412  1.00  0.00    +0.000 C 
BRANCH   24   23
ATOM    111  H17 UNL A   1      47.346  17.429   2.264  1.00  0.00    +0.000 H 
ATOM    110  H16 UNL A   1      46.867  18.046   3.843  1.00  0.00    +0.000 H 
ATOM     23  C19 UNL A   1      46.555  17.494   2.982  1.00  0.00    +0.000 C 
BRANCH   23   22
ATOM    109  H15 UNL A   1      45.169  17.910   1.456  1.00  0.00    +0.000 H 
ATOM     22  N2  UNL A   1      45.435  18.175   2.365  1.00  0.00    +0.000 N 
BRANCH   22    2
ATOM      1  O1  UNL A   1      45.238  20.189   3.444  1.00  0.00    +0.000 O 
ATOM      2  C1  UNL A   1      44.729  19.171   2.987  1.00  0.00    +0.000 C 
BRANCH    2    3
ATOM      3  C2  UNL A   1      43.242  18.906   3.088  1.00  0.00    +0.000 C 
ATOM     95  H1  UNL A   1      42.837  19.509   3.874  1.00  0.00    +0.000 H 
ATOM     96  H2  UNL A   1      43.108  17.863   3.288  1.00  0.00    +0.000 H 
BRANCH    3    4
ATOM     97  H3  UNL A   1      42.548  18.361   1.172  1.00  0.00    +0.000 H 
ATOM     98  H4  UNL A   1      43.004  20.087   1.392  1.00  0.00    +0.000 H 
ATOM      4  C3  UNL A   1      42.507  19.229   1.797  1.00  0.00    +0.000 C 
BRANCH    4    5
ATOM      5  C4  UNL A   1      41.072  19.625   1.931  1.00  0.00    +0.000 C 
ATOM      6  N1  UNL A   1      40.305  19.451   2.991  1.00  0.00    +0.000 N 
ATOM      7  C5  UNL A   1      39.093  19.964   2.610  1.00  0.00    +0.000 C 
ATOM     14  C12 UNL A   1      39.176  20.486   1.333  1.00  0.00    +0.000 C 
ATOM     21  O2  UNL A   1      40.449  20.251   0.874  1.00  0.00    +0.000 O 
BRANCH    7    8
ATOM     99  H5  UNL A   1      37.598  17.967   3.597  1.00  0.00    +0.000 H 
ATOM    100  H6  UNL A   1      35.397  18.149   4.600  1.00  0.00    +0.000 H 
ATOM    101  H7  UNL A   1      34.461  20.337   5.071  1.00  0.00    +0.000 H 
ATOM    102  H8  UNL A   1      35.757  22.335   4.617  1.00  0.00    +0.000 H 
ATOM    103  H9  UNL A   1      37.950  22.160   3.593  1.00  0.00    +0.000 H 
ATOM      8  C6  UNL A   1      37.918  20.053   3.451  1.00  0.00    +0.000 C 
ATOM      9  C7  UNL A   1      37.194  18.897   3.787  1.00  0.00    +0.000 C 
ATOM     10  C8  UNL A   1      35.934  19.000   4.375  1.00  0.00    +0.000 C 
ATOM     11  C9  UNL A   1      35.403  20.257   4.657  1.00  0.00    +0.000 C 
ATOM     12  C10 UNL A   1      36.142  21.408   4.380  1.00  0.00    +0.000 C 
ATOM     13  C11 UNL A   1      37.402  21.308   3.786  1.00  0.00    +0.000 C 
ENDBRANCH    7    8
BRANCH   14   15
ATOM    104  H10 UNL A   1      39.610  22.762  -0.057  1.00  0.00    +0.000 H 
ATOM    105  H11 UNL A   1      38.088  23.867  -1.591  1.00  0.00    +0.000 H 
ATOM    106  H12 UNL A   1      35.863  22.978  -1.961  1.00  0.00    +0.000 H 
ATOM    107  H13 UNL A   1      35.123  21.016  -0.740  1.00  0.00    +0.000 H 
ATOM    108  H14 UNL A   1      36.628  19.925   0.809  1.00  0.00    +0.000 H 
ATOM     15  C13 UNL A   1      38.258  21.233   0.485  1.00  0.00    +0.000 C 
ATOM     16  C14 UNL A   1      38.662  22.382  -0.202  1.00  0.00    +0.000 C 
ATOM     17  C15 UNL A   1      37.783  23.019  -1.087  1.00  0.00    +0.000 C 
ATOM     18  C16 UNL A   1      36.499  22.514  -1.294  1.00  0.00    +0.000 C 
ATOM     19  C17 UNL A   1      36.077  21.386  -0.599  1.00  0.00    +0.000 C 
ATOM     20  C18 UNL A   1      36.948  20.756   0.288  1.00  0.00    +0.000 C 
ENDBRANCH   14   15
ENDBRANCH    4    5
ENDBRANCH    3    4
ENDBRANCH    2    3
ENDBRANCH   22    2
ENDBRANCH   23   22
ENDBRANCH   24   23
ENDBRANCH   25   24
ENDBRANCH   26   25
ENDBRANCH   27   26
ENDBRANCH   28   27
ENDBRANCH   29   28
ENDBRANCH   30   29
ENDBRANCH   32   30
ENDBRANCH   36   35
BRANCH   40   41
ATOM     41  C34 UNL A   1      52.387  22.684  17.250  1.00  0.00    +0.000 C 
ATOM     42  C35 UNL A   1      51.591  22.036  18.209  1.00  0.00    +0.000 C 
ATOM     43  F1  UNL A   1      51.610  20.699  18.309  1.00  0.00    +0.000 F 
ATOM     44  C36 UNL A   1      50.731  22.758  19.032  1.00  0.00    +0.000 C 
ATOM     45  F2  UNL A   1      49.934  22.112  19.896  1.00  0.00    +0.000 F 
ATOM     46  C37 UNL A   1      50.677  24.140  18.942  1.00  0.00    +0.000 C 
ATOM     47  F3  UNL A   1      49.845  24.832  19.733  1.00  0.00    +0.000 F 
ATOM     48  C38 UNL A   1      51.477  24.803  18.024  1.00  0.00    +0.000 C 
ATOM     49  F4  UNL A   1      51.434  26.141  17.943  1.00  0.00    +0.000 F 
ATOM     50  C39 UNL A   1      52.317  24.083  17.178  1.00  0.00    +0.000 C 
ATOM     51  F5  UNL A   1      53.058  24.752  16.283  1.00  0.00    +0.000 F 
ENDBRANCH   40   41
BRANCH   57   58
ATOM     65  C49 UNL A   1      60.361  18.632  18.781  1.00  0.00    +0.000 C 
ATOM     66  F9  UNL A   1      60.573  17.482  19.435  1.00  0.00    +0.000 F 
ATOM     67  C50 UNL A   1      59.312  18.730  17.872  1.00  0.00    +0.000 C 
ATOM     68  F10 UNL A   1      58.536  17.656  17.661  1.00  0.00    +0.000 F 
ATOM     58  C45 UNL A   1      59.058  19.931  17.194  1.00  0.00    +0.000 C 
ATOM     59  C46 UNL A   1      59.895  21.025  17.450  1.00  0.00    +0.000 C 
ATOM     60  F6  UNL A   1      59.701  22.189  16.812  1.00  0.00    +0.000 F 
ATOM     61  C47 UNL A   1      60.958  20.917  18.343  1.00  0.00    +0.000 C 
ATOM     62  F7  UNL A   1      61.768  21.964  18.547  1.00  0.00    +0.000 F 
ATOM     63  C48 UNL A   1      61.185  19.723  19.013  1.00  0.00    +0.000 C 
ATOM     64  F8  UNL A   1      62.204  19.623  19.878  1.00  0.00    +0.000 F 
ENDBRANCH   57   58
BRANCH   72   73
ATOM     73  C54 UNL A   1      58.118  17.929  10.584  1.00  0.00    +0.000 C 
ATOM     74  C55 UNL A   1      58.163  16.535  10.451  1.00  0.00    +0.000 C 
ATOM     75  F11 UNL A   1      57.453  15.760  11.284  1.00  0.00    +0.000 F 
ATOM     76  C56 UNL A   1      58.955  15.929   9.477  1.00  0.00    +0.000 C 
ATOM     77  F12 UNL A   1      59.001  14.594   9.389  1.00  0.00    +0.000 F 
ATOM     78  C57 UNL A   1      59.699  16.708   8.603  1.00  0.00    +0.000 C 
ATOM     79  F13 UNL A   1      60.451  16.127   7.659  1.00  0.00    +0.000 F 
ATOM     80  C58 UNL A   1      59.665  18.090   8.712  1.00  0.00    +0.000 C 
ATOM     81  F14 UNL A   1      60.371  18.846   7.859  1.00  0.00    +0.000 F 
ATOM     82  C59 UNL A   1      58.891  18.696   9.699  1.00  0.00    +0.000 C 
ATOM     83  F15 UNL A   1      58.874  20.034   9.780  1.00  0.00    +0.000 F 
ENDBRANCH   72   73
TORSDOF 19
ENDMDL
MODEL 4
REMARK VINA RESULT:     -11.7     44.909     50.175
ROOT
ATOM    129  H35 UNL A   1      12.472  52.448   7.387  1.00  0.00    +0.000 H 
ATOM    130  H36 UNL A   1      14.704  51.453   4.024  1.00  0.00    +0.000 H 
ATOM    131  H37 UNL A   1      13.627  46.654   3.016  1.00  0.00    +0.000 H 
ATOM    132  H38 UNL A   1      15.195  46.871   1.003  1.00  0.00    +0.000 H 
ATOM    133  H39 UNL A   1      16.480  56.651   2.909  1.00  0.00    +0.000 H 
ATOM    134  H40 UNL A   1      15.322  56.345   5.173  1.00  0.00    +0.000 H 
ATOM     36  C30 UNL A   1      14.198  53.757   5.530  1.00  0.00    +0.000 C 
ATOM     37  C31 UNL A   1      15.074  54.225   4.407  1.00  0.00    +0.000 C 
ATOM     38  N4  UNL A   1      15.506  53.565   3.362  1.00  0.00    +0.000 N 
ATOM     39  C32 UNL A   1      16.216  54.486   2.606  1.00  0.00    +0.000 C 
ATOM     40  C33 UNL A   1      16.908  54.279   1.460  1.00  0.00    +0.000 C 
ATOM     52  C40 UNL A   1      17.028  52.999   0.813  1.00  0.00    +0.000 C 
ATOM     53  C41 UNL A   1      17.765  52.663  -0.309  1.00  0.00    +0.000 C 
ATOM     54  C42 UNL A   1      17.542  51.309  -0.586  1.00  0.00    +0.000 C 
ATOM     55  C43 UNL A   1      16.697  50.794   0.384  1.00  0.00    +0.000 C 
ATOM     56  N5  UNL A   1      16.388  51.842   1.233  1.00  0.00    +0.000 N 
ATOM     57  C44 UNL A   1      16.209  49.445   0.524  1.00  0.00    +0.000 C 
ATOM     69  C51 UNL A   1      15.405  49.001   1.521  1.00  0.00    +0.000 C 
ATOM     70  N6  UNL A   1      14.873  49.706   2.591  1.00  0.00    +0.000 N 
ATOM     71  C52 UNL A   1      14.151  48.845   3.266  1.00  0.00    +0.000 C 
ATOM     72  C53 UNL A   1      13.353  49.060   4.521  1.00  0.00    +0.000 C 
ATOM     84  C60 UNL A   1      13.399  50.261   5.126  1.00  0.00    +0.000 C 
ATOM     85  C61 UNL A   1      12.673  50.623   6.338  1.00  0.00    +0.000 C 
ATOM     86  C62 UNL A   1      12.886  51.922   6.601  1.00  0.00    +0.000 C 
ATOM     87  C63 UNL A   1      13.796  52.473   5.595  1.00  0.00    +0.000 C 
ATOM     88  N7  UNL A   1      14.078  51.405   4.782  1.00  0.00    +0.000 N 
ATOM     89  C64 UNL A   1      14.132  47.493   2.692  1.00  0.00    +0.000 C 
ATOM     90  C65 UNL A   1      14.936  47.635   1.647  1.00  0.00    +0.000 C 
ATOM     91  C66 UNL A   1      16.112  55.761   3.282  1.00  0.00    +0.000 C 
ATOM     92  C67 UNL A   1      15.482  55.637   4.440  1.00  0.00    +0.000 C 
ATOM    125  H31 UNL A   1      18.373  53.299  -0.847  1.00  0.00    +0.000 H 
ATOM    126  H32 UNL A   1      17.942  50.783  -1.380  1.00  0.00    +0.000 H 
ATOM    127  H33 UNL A   1      15.799  51.776   2.021  1.00  0.00    +0.000 H 
ATOM    128  H34 UNL A   1      12.090  49.985   6.901  1.00  0.00    +0.000 H 
ENDROOT
BRANCH   36   35
ATOM     33  C27 UNL A   1      13.504  55.656   8.734  1.00  0.00    +0.000 C 
ATOM     34  C28 UNL A   1      14.157  54.849   7.801  1.00  0.00    +0.000 C 
ATOM     35  C29 UNL A   1      13.651  54.738   6.496  1.00  0.00    +0.000 C 
ATOM    135  H41 UNL A   1      12.213  55.483   5.133  1.00  0.00    +0.000 H 
ATOM    136  H42 UNL A   1      11.233  57.054   6.697  1.00  0.00    +0.000 H 
ATOM    123  H29 UNL A   1      13.851  55.714   9.705  1.00  0.00    +0.000 H 
ATOM    124  H30 UNL A   1      15.010  54.335   8.070  1.00  0.00    +0.000 H 
ATOM     93  C68 UNL A   1      12.568  55.538   6.101  1.00  0.00    +0.000 C 
ATOM     94  C69 UNL A   1      11.971  56.403   7.007  1.00  0.00    +0.000 C 
ATOM     32  C26 UNL A   1      12.380  56.385   8.342  1.00  0.00    +0.000 C 
BRANCH   32   30
ATOM     30  C25 UNL A   1      11.577  57.071   9.373  1.00  0.00    +0.000 C 
ATOM     31  O3  UNL A   1      11.785  58.247   9.628  1.00  0.00    +0.000 O 
BRANCH   30   29
ATOM    122  H28 UNL A   1       9.739  56.323   9.645  1.00  0.00    +0.000 H 
ATOM     29  N3  UNL A   1      10.630  56.347  10.063  1.00  0.00    +0.000 N 
BRANCH   29   28
ATOM    121  H27 UNL A   1       9.952  55.941  11.952  1.00  0.00    +0.000 H 
ATOM     28  C24 UNL A   1      10.748  55.612  11.317  1.00  0.00    +0.000 C 
ATOM    120  H26 UNL A   1      11.711  55.813  11.738  1.00  0.00    +0.000 H 
BRANCH   28   27
ATOM     27  C23 UNL A   1      10.598  54.102  11.153  1.00  0.00    +0.000 C 
ATOM    118  H24 UNL A   1      11.565  53.689  10.956  1.00  0.00    +0.000 H 
ATOM    119  H25 UNL A   1      10.168  53.738  12.064  1.00  0.00    +0.000 H 
BRANCH   27   26
ATOM     26  C22 UNL A   1       9.661  53.681  10.030  1.00  0.00    +0.000 C 
ATOM    116  H22 UNL A   1       8.841  53.148  10.465  1.00  0.00    +0.000 H 
ATOM    117  H23 UNL A   1       9.372  54.585   9.534  1.00  0.00    +0.000 H 
BRANCH   26   25
ATOM     25  C21 UNL A   1      10.280  52.793   8.952  1.00  0.00    +0.000 C 
ATOM    114  H20 UNL A   1       9.577  52.699   8.152  1.00  0.00    +0.000 H 
ATOM    115  H21 UNL A   1      11.192  53.268   8.655  1.00  0.00    +0.000 H 
BRANCH   25   24
ATOM    113  H19 UNL A   1      10.641  51.413  10.497  1.00  0.00    +0.000 H 
ATOM    112  H18 UNL A   1      11.619  51.145   9.027  1.00  0.00    +0.000 H 
ATOM     24  C20 UNL A   1      10.656  51.387   9.427  1.00  0.00    +0.000 C 
BRANCH   24   23
ATOM    111  H17 UNL A   1      10.172  49.641   8.316  1.00  0.00    +0.000 H 
ATOM    110  H16 UNL A   1       8.819  50.743   8.554  1.00  0.00    +0.000 H 
ATOM     23  C19 UNL A   1       9.675  50.290   9.007  1.00  0.00    +0.000 C 
BRANCH   23   22
ATOM    109  H15 UNL A   1       8.969  49.971  10.963  1.00  0.00    +0.000 H 
ATOM     22  N2  UNL A   1       9.244  49.500  10.143  1.00  0.00    +0.000 N 
BRANCH   22    2
ATOM      1  O1  UNL A   1       8.225  47.474  10.482  1.00  0.00    +0.000 O 
ATOM      2  C1  UNL A   1       9.200  48.131  10.131  1.00  0.00    +0.000 C 
BRANCH    2    3
ATOM      3  C2  UNL A   1      10.480  47.473   9.661  1.00  0.00    +0.000 C 
ATOM     95  H1  UNL A   1      10.890  48.052   8.861  1.00  0.00    +0.000 H 
ATOM     96  H2  UNL A   1      10.240  46.480   9.342  1.00  0.00    +0.000 H 
BRANCH    3    4
ATOM     97  H3  UNL A   1      12.012  46.425  10.662  1.00  0.00    +0.000 H 
ATOM     98  H4  UNL A   1      10.970  47.476  11.683  1.00  0.00    +0.000 H 
ATOM      4  C3  UNL A   1      11.516  47.367  10.769  1.00  0.00    +0.000 C 
BRANCH    4    5
ATOM      5  C4  UNL A   1      12.564  48.433  10.800  1.00  0.00    +0.000 C 
ATOM      6  N1  UNL A   1      13.680  48.458  10.097  1.00  0.00    +0.000 N 
ATOM      7  C5  UNL A   1      14.294  49.619  10.490  1.00  0.00    +0.000 C 
ATOM     14  C12 UNL A   1      13.496  50.296  11.394  1.00  0.00    +0.000 C 
ATOM     21  O2  UNL A   1      12.383  49.525  11.620  1.00  0.00    +0.000 O 
BRANCH    7    8
ATOM     99  H5  UNL A   1      14.698  51.025   8.242  1.00  0.00    +0.000 H 
ATOM    100  H6  UNL A   1      16.821  51.459   7.153  1.00  0.00    +0.000 H 
ATOM    101  H7  UNL A   1      18.893  50.852   8.259  1.00  0.00    +0.000 H 
ATOM    102  H8  UNL A   1      18.844  49.889  10.485  1.00  0.00    +0.000 H 
ATOM    103  H9  UNL A   1      16.721  49.432  11.569  1.00  0.00    +0.000 H 
ATOM      8  C6  UNL A   1      15.541  50.129   9.962  1.00  0.00    +0.000 C 
ATOM      9  C7  UNL A   1      15.579  50.756   8.707  1.00  0.00    +0.000 C 
ATOM     10  C8  UNL A   1      16.799  51.017   8.085  1.00  0.00    +0.000 C 
ATOM     11  C9  UNL A   1      17.989  50.681   8.727  1.00  0.00    +0.000 C 
ATOM     12  C10 UNL A   1      17.960  50.111  10.001  1.00  0.00    +0.000 C 
ATOM     13  C11 UNL A   1      16.739  49.842  10.623  1.00  0.00    +0.000 C 
ENDBRANCH    7    8
BRANCH   14   15
ATOM    104  H10 UNL A   1      14.677  52.561  10.513  1.00  0.00    +0.000 H 
ATOM    105  H11 UNL A   1      14.644  54.747  11.565  1.00  0.00    +0.000 H 
ATOM    106  H12 UNL A   1      13.521  55.067  13.689  1.00  0.00    +0.000 H 
ATOM    107  H13 UNL A   1      12.486  53.181  14.810  1.00  0.00    +0.000 H 
ATOM    108  H14 UNL A   1      12.538  50.993  13.777  1.00  0.00    +0.000 H 
ATOM     15  C13 UNL A   1      13.586  51.597  12.042  1.00  0.00    +0.000 C 
ATOM     16  C14 UNL A   1      14.204  52.687  11.421  1.00  0.00    +0.000 C 
ATOM     17  C15 UNL A   1      14.185  53.948  12.028  1.00  0.00    +0.000 C 
ATOM     18  C16 UNL A   1      13.547  54.131  13.256  1.00  0.00    +0.000 C 
ATOM     19  C17 UNL A   1      12.948  53.052  13.895  1.00  0.00    +0.000 C 
ATOM     20  C18 UNL A   1      12.974  51.794  13.295  1.00  0.00    +0.000 C 
ENDBRANCH   14   15
ENDBRANCH    4    5
ENDBRANCH    3    4
ENDBRANCH    2    3
ENDBRANCH   22    2
ENDBRANCH   23   22
ENDBRANCH   24   23
ENDBRANCH   25   24
ENDBRANCH   26   25
ENDBRANCH   27   26
ENDBRANCH   28   27
ENDBRANCH   29   28
ENDBRANCH   30   29
ENDBRANCH   32   30
ENDBRANCH   36   35
BRANCH   40   41
ATOM     41  C34 UNL A   1      17.589  55.466   0.847  1.00  0.00    +0.000 C 
ATOM     42  C35 UNL A   1      16.966  56.236  -0.149  1.00  0.00    +0.000 C 
ATOM     43  F1  UNL A   1      15.740  55.912  -0.584  1.00  0.00    +0.000 F 
ATOM     44  C36 UNL A   1      17.625  57.311  -0.740  1.00  0.00    +0.000 C 
ATOM     45  F2  UNL A   1      17.034  57.992  -1.733  1.00  0.00    +0.000 F 
ATOM     46  C37 UNL A   1      18.899  57.661  -0.322  1.00  0.00    +0.000 C 
ATOM     47  F3  UNL A   1      19.533  58.694  -0.896  1.00  0.00    +0.000 F 
ATOM     48  C38 UNL A   1      19.521  56.934   0.681  1.00  0.00    +0.000 C 
ATOM     49  F4  UNL A   1      20.750  57.279   1.092  1.00  0.00    +0.000 F 
ATOM     50  C39 UNL A   1      18.878  55.840   1.254  1.00  0.00    +0.000 C 
ATOM     51  F5  UNL A   1      19.517  55.141   2.204  1.00  0.00    +0.000 F 
ENDBRANCH   40   41
BRANCH   57   58
ATOM     65  C49 UNL A   1      18.323  46.956  -1.423  1.00  0.00    +0.000 C 
ATOM     66  F9  UNL A   1      19.548  46.417  -1.356  1.00  0.00    +0.000 F 
ATOM     67  C50 UNL A   1      17.902  47.848  -0.443  1.00  0.00    +0.000 C 
ATOM     68  F10 UNL A   1      18.737  48.145   0.564  1.00  0.00    +0.000 F 
ATOM     58  C45 UNL A   1      16.632  48.441  -0.506  1.00  0.00    +0.000 C 
ATOM     59  C46 UNL A   1      15.797  48.102  -1.580  1.00  0.00    +0.000 C 
ATOM     60  F6  UNL A   1      14.568  48.631  -1.673  1.00  0.00    +0.000 F 
ATOM     61  C47 UNL A   1      16.213  47.191  -2.547  1.00  0.00    +0.000 C 
ATOM     62  F7  UNL A   1      15.386  46.852  -3.546  1.00  0.00    +0.000 F 
ATOM     63  C48 UNL A   1      17.477  46.624  -2.471  1.00  0.00    +0.000 C 
ATOM     64  F8  UNL A   1      17.879  45.753  -3.408  1.00  0.00    +0.000 F 
ENDBRANCH   57   58
BRANCH   72   73
ATOM     73  C54 UNL A   1      12.541  47.970   5.117  1.00  0.00    +0.000 C 
ATOM     74  C55 UNL A   1      11.327  47.581   4.535  1.00  0.00    +0.000 C 
ATOM     75  F11 UNL A   1      10.863  48.232   3.458  1.00  0.00    +0.000 F 
ATOM     76  C56 UNL A   1      10.573  46.539   5.070  1.00  0.00    +0.000 C 
ATOM     77  F12 UNL A   1       9.403  46.205   4.510  1.00  0.00    +0.000 F 
ATOM     78  C57 UNL A   1      11.031  45.850   6.183  1.00  0.00    +0.000 C 
ATOM     79  F13 UNL A   1      10.312  44.839   6.691  1.00  0.00    +0.000 F 
ATOM     80  C58 UNL A   1      12.233  46.213   6.773  1.00  0.00    +0.000 C 
ATOM     81  F14 UNL A   1      12.685  45.539   7.839  1.00  0.00    +0.000 F 
ATOM     82  C59 UNL A   1      12.976  47.270   6.251  1.00  0.00    +0.000 C 
ATOM     83  F15 UNL A   1      14.136  47.598   6.839  1.00  0.00    +0.000 F 
ENDBRANCH   72   73
TORSDOF 19
ENDMDL
MODEL 5
REMARK VINA RESULT:     -11.6     45.207     49.969
ROOT
ATOM    129  H35 UNL A   1      12.066  52.086   7.146  1.00  0.00    +0.000 H 
ATOM    130  H36 UNL A   1      14.275  51.264   3.722  1.00  0.00    +0.000 H 
ATOM    131  H37 UNL A   1      12.984  46.618   2.322  1.00  0.00    +0.000 H 
ATOM    132  H38 UNL A   1      14.576  46.924   0.340  1.00  0.00    +0.000 H 
ATOM    133  H39 UNL A   1      16.298  56.446   3.040  1.00  0.00    +0.000 H 
ATOM    134  H40 UNL A   1      15.111  56.013   5.267  1.00  0.00    +0.000 H 
ATOM     36  C30 UNL A   1      13.865  53.459   5.408  1.00  0.00    +0.000 C 
ATOM     37  C31 UNL A   1      14.770  53.975   4.330  1.00  0.00    +0.000 C 
ATOM     38  N4  UNL A   1      15.179  53.383   3.237  1.00  0.00    +0.000 N 
ATOM     39  C32 UNL A   1      15.937  54.328   2.560  1.00  0.00    +0.000 C 
ATOM     40  C33 UNL A   1      16.627  54.182   1.405  1.00  0.00    +0.000 C 
ATOM     52  C40 UNL A   1      16.692  52.955   0.655  1.00  0.00    +0.000 C 
ATOM     53  C41 UNL A   1      17.421  52.677  -0.487  1.00  0.00    +0.000 C 
ATOM     54  C42 UNL A   1      17.138  51.362  -0.875  1.00  0.00    +0.000 C 
ATOM     55  C43 UNL A   1      16.263  50.810   0.047  1.00  0.00    +0.000 C 
ATOM     56  N5  UNL A   1      15.996  51.798   0.978  1.00  0.00    +0.000 N 
ATOM     57  C44 UNL A   1      15.712  49.479   0.075  1.00  0.00    +0.000 C 
ATOM     69  C51 UNL A   1      14.881  48.993   1.030  1.00  0.00    +0.000 C 
ATOM     70  N6  UNL A   1      14.374  49.633   2.152  1.00  0.00    +0.000 N 
ATOM     71  C52 UNL A   1      13.608  48.754   2.751  1.00  0.00    +0.000 C 
ATOM     72  C53 UNL A   1      12.811  48.904   4.017  1.00  0.00    +0.000 C 
ATOM     84  C60 UNL A   1      12.908  50.049   4.718  1.00  0.00    +0.000 C 
ATOM     85  C61 UNL A   1      12.191  50.345   5.953  1.00  0.00    +0.000 C 
ATOM     86  C62 UNL A   1      12.461  51.607   6.321  1.00  0.00    +0.000 C 
ATOM     87  C63 UNL A   1      13.404  52.195   5.367  1.00  0.00    +0.000 C 
ATOM     88  N7  UNL A   1      13.642  51.184   4.470  1.00  0.00    +0.000 N 
ATOM     89  C64 UNL A   1      13.531  47.456   2.069  1.00  0.00    +0.000 C 
ATOM     90  C65 UNL A   1      14.348  47.645   1.042  1.00  0.00    +0.000 C 
ATOM     91  C66 UNL A   1      15.887  55.547   3.338  1.00  0.00    +0.000 C 
ATOM     92  C67 UNL A   1      15.244  55.359   4.480  1.00  0.00    +0.000 C 
ATOM    125  H31 UNL A   1      18.062  53.326  -0.969  1.00  0.00    +0.000 H 
ATOM    126  H32 UNL A   1      17.519  50.884  -1.707  1.00  0.00    +0.000 H 
ATOM    127  H33 UNL A   1      15.399  51.696   1.755  1.00  0.00    +0.000 H 
ATOM    128  H34 UNL A   1      11.574  49.691   6.460  1.00  0.00    +0.000 H 
ENDROOT
BRANCH   36   35
ATOM     33  C27 UNL A   1      13.508  55.392   8.647  1.00  0.00    +0.000 C 
ATOM     34  C28 UNL A   1      14.092  54.660   7.612  1.00  0.00    +0.000 C 
ATOM     35  C29 UNL A   1      13.357  54.383   6.449  1.00  0.00    +0.000 C 
ATOM    135  H41 UNL A   1      11.556  54.779   5.411  1.00  0.00    +0.000 H 
ATOM    136  H42 UNL A   1      10.645  56.241   7.116  1.00  0.00    +0.000 H 
ATOM    123  H29 UNL A   1      14.030  55.568   9.520  1.00  0.00    +0.000 H 
ATOM    124  H30 UNL A   1      15.062  54.322   7.703  1.00  0.00    +0.000 H 
ATOM     93  C68 UNL A   1      12.086  54.954   6.279  1.00  0.00    +0.000 C 
ATOM     94  C69 UNL A   1      11.539  55.751   7.273  1.00  0.00    +0.000 C 
ATOM     32  C26 UNL A   1      12.211  55.885   8.490  1.00  0.00    +0.000 C 
BRANCH   32   30
ATOM     30  C25 UNL A   1      11.525  56.478   9.655  1.00  0.00    +0.000 C 
ATOM     31  O3  UNL A   1      11.109  57.624   9.601  1.00  0.00    +0.000 O 
BRANCH   30   29
ATOM    122  H28 UNL A   1      11.746  56.162  11.621  1.00  0.00    +0.000 H 
ATOM     29  N3  UNL A   1      11.409  55.728  10.804  1.00  0.00    +0.000 N 
BRANCH   29   28
ATOM    121  H27 UNL A   1      10.214  54.192  10.167  1.00  0.00    +0.000 H 
ATOM     28  C24 UNL A   1      10.863  54.389  10.993  1.00  0.00    +0.000 C 
ATOM    120  H26 UNL A   1      10.346  54.363  11.930  1.00  0.00    +0.000 H 
BRANCH   28   27
ATOM     27  C23 UNL A   1      11.927  53.294  11.001  1.00  0.00    +0.000 C 
ATOM    118  H24 UNL A   1      11.944  52.837  10.033  1.00  0.00    +0.000 H 
ATOM    119  H25 UNL A   1      12.853  53.770  11.252  1.00  0.00    +0.000 H 
BRANCH   27   26
ATOM     26  C22 UNL A   1      11.701  52.204  12.040  1.00  0.00    +0.000 C 
ATOM    116  H22 UNL A   1      12.575  52.148  12.655  1.00  0.00    +0.000 H 
ATOM    117  H23 UNL A   1      10.816  52.486  12.573  1.00  0.00    +0.000 H 
BRANCH   26   25
ATOM     25  C21 UNL A   1      11.427  50.809  11.483  1.00  0.00    +0.000 C 
ATOM    114  H20 UNL A   1      10.620  50.880  10.785  1.00  0.00    +0.000 H 
ATOM    115  H21 UNL A   1      12.341  50.477  11.035  1.00  0.00    +0.000 H 
BRANCH   25   24
ATOM    113  H19 UNL A   1      10.672  50.305  13.379  1.00  0.00    +0.000 H 
ATOM    112  H18 UNL A   1      11.933  49.197  12.771  1.00  0.00    +0.000 H 
ATOM     24  C20 UNL A   1      11.056  49.764  12.539  1.00  0.00    +0.000 C 
BRANCH   24   23
ATOM    111  H17 UNL A   1       9.009  49.250  12.294  1.00  0.00    +0.000 H 
ATOM    110  H16 UNL A   1      10.055  47.885  12.673  1.00  0.00    +0.000 H 
ATOM     23  C19 UNL A   1       9.956  48.789  12.111  1.00  0.00    +0.000 C 
BRANCH   23   22
ATOM    109  H15 UNL A   1      10.047  49.222  10.054  1.00  0.00    +0.000 H 
ATOM     22  N2  UNL A   1      10.045  48.478  10.698  1.00  0.00    +0.000 N 
BRANCH   22    2
ATOM      1  O1  UNL A   1       9.414  46.756   9.321  1.00  0.00    +0.000 O 
ATOM      2  C1  UNL A   1      10.127  47.198  10.216  1.00  0.00    +0.000 C 
BRANCH    2    3
ATOM      3  C2  UNL A   1      11.173  46.344  10.900  1.00  0.00    +0.000 C 
ATOM     95  H1  UNL A   1      10.696  45.481  11.315  1.00  0.00    +0.000 H 
ATOM     96  H2  UNL A   1      11.635  46.938  11.661  1.00  0.00    +0.000 H 
BRANCH    3    4
ATOM     97  H3  UNL A   1      11.788  45.551   9.044  1.00  0.00    +0.000 H 
ATOM     98  H4  UNL A   1      12.803  45.127  10.466  1.00  0.00    +0.000 H 
ATOM      4  C3  UNL A   1      12.263  45.887   9.942  1.00  0.00    +0.000 C 
BRANCH    4    5
ATOM      5  C4  UNL A   1      13.282  46.912   9.562  1.00  0.00    +0.000 C 
ATOM      6  N1  UNL A   1      13.616  47.271   8.336  1.00  0.00    +0.000 N 
ATOM      7  C5  UNL A   1      14.589  48.218   8.522  1.00  0.00    +0.000 C 
ATOM     14  C12 UNL A   1      14.781  48.445   9.873  1.00  0.00    +0.000 C 
ATOM     21  O2  UNL A   1      13.956  47.586  10.556  1.00  0.00    +0.000 O 
BRANCH    7    8
ATOM     99  H5  UNL A   1      15.536  47.306   6.184  1.00  0.00    +0.000 H 
ATOM    100  H6  UNL A   1      17.032  48.462   4.664  1.00  0.00    +0.000 H 
ATOM    101  H7  UNL A   1      17.577  50.794   5.046  1.00  0.00    +0.000 H 
ATOM    102  H8  UNL A   1      16.564  51.991   6.896  1.00  0.00    +0.000 H 
ATOM    103  H9  UNL A   1      15.085  50.834   8.433  1.00  0.00    +0.000 H 
ATOM      8  C6  UNL A   1      15.249  48.962   7.470  1.00  0.00    +0.000 C 
ATOM      9  C7  UNL A   1      15.778  48.295   6.353  1.00  0.00    +0.000 C 
ATOM     10  C8  UNL A   1      16.628  48.962   5.471  1.00  0.00    +0.000 C 
ATOM     11  C9  UNL A   1      16.930  50.305   5.684  1.00  0.00    +0.000 C 
ATOM     12  C10 UNL A   1      16.360  50.989   6.759  1.00  0.00    +0.000 C 
ATOM     13  C11 UNL A   1      15.514  50.323   7.647  1.00  0.00    +0.000 C 
ENDBRANCH    7    8
BRANCH   14   15
ATOM    104  H10 UNL A   1      17.467  48.583  10.128  1.00  0.00    +0.000 H 
ATOM    105  H11 UNL A   1      18.754  50.293  11.272  1.00  0.00    +0.000 H 
ATOM    106  H12 UNL A   1      17.631  52.106  12.424  1.00  0.00    +0.000 H 
ATOM    107  H13 UNL A   1      15.207  52.177  12.499  1.00  0.00    +0.000 H 
ATOM    108  H14 UNL A   1      13.918  50.461  11.381  1.00  0.00    +0.000 H 
ATOM     15  C13 UNL A   1      15.584  49.393  10.633  1.00  0.00    +0.000 C 
ATOM     16  C14 UNL A   1      16.981  49.347  10.622  1.00  0.00    +0.000 C 
ATOM     17  C15 UNL A   1      17.723  50.333  11.283  1.00  0.00    +0.000 C 
ATOM     18  C16 UNL A   1      17.078  51.372  11.955  1.00  0.00    +0.000 C 
ATOM     19  C17 UNL A   1      15.689  51.417  11.993  1.00  0.00    +0.000 C 
ATOM     20  C18 UNL A   1      14.949  50.430  11.342  1.00  0.00    +0.000 C 
ENDBRANCH   14   15
ENDBRANCH    4    5
ENDBRANCH    3    4
ENDBRANCH    2    3
ENDBRANCH   22    2
ENDBRANCH   23   22
ENDBRANCH   24   23
ENDBRANCH   25   24
ENDBRANCH   26   25
ENDBRANCH   27   26
ENDBRANCH   28   27
ENDBRANCH   29   28
ENDBRANCH   30   29
ENDBRANCH   32   30
ENDBRANCH   36   35
BRANCH   40   41
ATOM     41  C34 UNL A   1      17.367  55.382   0.892  1.00  0.00    +0.000 C 
ATOM     42  C35 UNL A   1      16.791  56.255  -0.045  1.00  0.00    +0.000 C 
ATOM     43  F1  UNL A   1      15.556  56.021  -0.514  1.00  0.00    +0.000 F 
ATOM     44  C36 UNL A   1      17.503  57.342  -0.544  1.00  0.00    +0.000 C 
ATOM     45  F2  UNL A   1      16.954  58.125  -1.484  1.00  0.00    +0.000 F 
ATOM     46  C37 UNL A   1      18.787  57.601  -0.089  1.00  0.00    +0.000 C 
ATOM     47  F3  UNL A   1      19.472  58.646  -0.574  1.00  0.00    +0.000 F 
ATOM     48  C38 UNL A   1      19.364  56.771   0.859  1.00  0.00    +0.000 C 
ATOM     49  F4  UNL A   1      20.602  57.026   1.306  1.00  0.00    +0.000 F 
ATOM     50  C39 UNL A   1      18.667  55.664   1.339  1.00  0.00    +0.000 C 
ATOM     51  F5  UNL A   1      19.263  54.865   2.235  1.00  0.00    +0.000 F 
ENDBRANCH   40   41
BRANCH   57   58
ATOM     65  C49 UNL A   1      15.559  47.429  -3.124  1.00  0.00    +0.000 C 
ATOM     66  F9  UNL A   1      14.712  47.228  -4.142  1.00  0.00    +0.000 F 
ATOM     67  C50 UNL A   1      15.234  48.334  -2.119  1.00  0.00    +0.000 C 
ATOM     68  F10 UNL A   1      14.073  49.000  -2.199  1.00  0.00    +0.000 F 
ATOM     58  C45 UNL A   1      16.096  48.543  -1.032  1.00  0.00    +0.000 C 
ATOM     59  C46 UNL A   1      17.297  47.821  -0.992  1.00  0.00    +0.000 C 
ATOM     60  F6  UNL A   1      18.160  48.001   0.019  1.00  0.00    +0.000 F 
ATOM     61  C47 UNL A   1      17.630  46.933  -2.011  1.00  0.00    +0.000 C 
ATOM     62  F7  UNL A   1      18.799  46.279  -1.973  1.00  0.00    +0.000 F 
ATOM     63  C48 UNL A   1      16.758  46.732  -3.072  1.00  0.00    +0.000 C 
ATOM     64  F8  UNL A   1      17.076  45.871  -4.048  1.00  0.00    +0.000 F 
ENDBRANCH   57   58
BRANCH   72   73
ATOM     73  C54 UNL A   1      11.945  47.809   4.519  1.00  0.00    +0.000 C 
ATOM     74  C55 UNL A   1      12.501  46.683   5.140  1.00  0.00    +0.000 C 
ATOM     75  F11 UNL A   1      13.833  46.564   5.240  1.00  0.00    +0.000 F 
ATOM     76  C56 UNL A   1      11.694  45.665   5.642  1.00  0.00    +0.000 C 
ATOM     77  F12 UNL A   1      12.251  44.587   6.208  1.00  0.00    +0.000 F 
ATOM     78  C57 UNL A   1      10.313  45.764   5.552  1.00  0.00    +0.000 C 
ATOM     79  F13 UNL A   1       9.536  44.790   6.045  1.00  0.00    +0.000 F 
ATOM     80  C58 UNL A   1       9.740  46.872   4.946  1.00  0.00    +0.000 C 
ATOM     81  F14 UNL A   1       8.406  46.978   4.871  1.00  0.00    +0.000 F 
ATOM     82  C59 UNL A   1      10.547  47.880   4.424  1.00  0.00    +0.000 C 
ATOM     83  F15 UNL A   1       9.967  48.941   3.846  1.00  0.00    +0.000 F 
ENDBRANCH   72   73
TORSDOF 19
ENDMDL
MODEL 6
REMARK VINA RESULT:     -11.6     39.908     44.270
ROOT
ATOM    129  H35 UNL A   1      26.680  33.847  44.338  1.00  0.00    +0.000 H 
ATOM    130  H36 UNL A   1      30.281  32.576  45.978  1.00  0.00    +0.000 H 
ATOM    131  H37 UNL A   1      33.882  35.043  43.497  1.00  0.00    +0.000 H 
ATOM    132  H38 UNL A   1      35.556  33.847  45.020  1.00  0.00    +0.000 H 
ATOM    133  H39 UNL A   1      28.035  29.709  50.238  1.00  0.00    +0.000 H 
ATOM    134  H40 UNL A   1      26.381  30.496  48.447  1.00  0.00    +0.000 H 
ATOM     36  C30 UNL A   1      27.557  32.185  46.484  1.00  0.00    +0.000 C 
ATOM     37  C31 UNL A   1      28.256  31.425  47.571  1.00  0.00    +0.000 C 
ATOM     38  N4  UNL A   1      29.532  31.371  47.856  1.00  0.00    +0.000 N 
ATOM     39  C32 UNL A   1      29.627  30.585  48.995  1.00  0.00    +0.000 C 
ATOM     40  C33 UNL A   1      30.743  30.181  49.648  1.00  0.00    +0.000 C 
ATOM     52  C40 UNL A   1      32.081  30.519  49.239  1.00  0.00    +0.000 C 
ATOM     53  C41 UNL A   1      33.283  30.103  49.784  1.00  0.00    +0.000 C 
ATOM     54  C42 UNL A   1      34.320  30.720  49.074  1.00  0.00    +0.000 C 
ATOM     55  C43 UNL A   1      33.764  31.491  48.064  1.00  0.00    +0.000 C 
ATOM     56  N5  UNL A   1      32.391  31.359  48.179  1.00  0.00    +0.000 N 
ATOM     57  C44 UNL A   1      34.437  32.286  47.069  1.00  0.00    +0.000 C 
ATOM     69  C51 UNL A   1      33.828  32.993  46.086  1.00  0.00    +0.000 C 
ATOM     70  N6  UNL A   1      32.474  33.126  45.819  1.00  0.00    +0.000 N 
ATOM     71  C52 UNL A   1      32.388  33.922  44.781  1.00  0.00    +0.000 C 
ATOM     72  C53 UNL A   1      31.161  34.404  44.060  1.00  0.00    +0.000 C 
ATOM     84  C60 UNL A   1      29.957  33.938  44.437  1.00  0.00    +0.000 C 
ATOM     85  C61 UNL A   1      28.680  34.321  43.843  1.00  0.00    +0.000 C 
ATOM     86  C62 UNL A   1      27.688  33.730  44.527  1.00  0.00    +0.000 C 
ATOM     87  C63 UNL A   1      28.263  32.894  45.583  1.00  0.00    +0.000 C 
ATOM     88  N7  UNL A   1      29.617  33.051  45.430  1.00  0.00    +0.000 N 
ATOM     89  C64 UNL A   1      33.683  34.397  44.277  1.00  0.00    +0.000 C 
ATOM     90  C65 UNL A   1      34.529  33.778  45.089  1.00  0.00    +0.000 C 
ATOM     91  C66 UNL A   1      28.279  30.229  49.380  1.00  0.00    +0.000 C 
ATOM     92  C67 UNL A   1      27.399  30.658  48.488  1.00  0.00    +0.000 C 
ATOM    125  H31 UNL A   1      33.395  29.451  50.575  1.00  0.00    +0.000 H 
ATOM    126  H32 UNL A   1      35.328  30.618  49.269  1.00  0.00    +0.000 H 
ATOM    127  H33 UNL A   1      31.731  31.798  47.594  1.00  0.00    +0.000 H 
ATOM    128  H34 UNL A   1      28.560  34.946  43.031  1.00  0.00    +0.000 H 
ENDROOT
BRANCH   36   35
ATOM     33  C27 UNL A   1      23.909  31.556  45.678  1.00  0.00    +0.000 C 
ATOM     34  C28 UNL A   1      25.282  31.340  45.806  1.00  0.00    +0.000 C 
ATOM     35  C29 UNL A   1      26.078  32.277  46.482  1.00  0.00    +0.000 C 
ATOM    135  H41 UNL A   1      26.050  34.033  47.663  1.00  0.00    +0.000 H 
ATOM    136  H42 UNL A   1      23.638  34.272  47.630  1.00  0.00    +0.000 H 
ATOM    123  H29 UNL A   1      23.323  30.889  45.151  1.00  0.00    +0.000 H 
ATOM    124  H30 UNL A   1      25.710  30.492  45.403  1.00  0.00    +0.000 H 
ATOM     93  C68 UNL A   1      25.471  33.360  47.137  1.00  0.00    +0.000 C 
ATOM     94  C69 UNL A   1      24.095  33.529  47.080  1.00  0.00    +0.000 C 
ATOM     32  C26 UNL A   1      23.335  32.682  46.270  1.00  0.00    +0.000 C 
BRANCH   32   30
ATOM     30  C25 UNL A   1      21.930  33.015  45.963  1.00  0.00    +0.000 C 
ATOM     31  O3  UNL A   1      21.641  34.126  45.548  1.00  0.00    +0.000 O 
BRANCH   30   29
ATOM    122  H28 UNL A   1      20.673  31.983  47.132  1.00  0.00    +0.000 H 
ATOM     29  N3  UNL A   1      20.961  32.065  46.194  1.00  0.00    +0.000 N 
BRANCH   29   28
ATOM    121  H27 UNL A   1      19.528  30.654  45.805  1.00  0.00    +0.000 H 
ATOM     28  C24 UNL A   1      20.298  31.160  45.261  1.00  0.00    +0.000 C 
ATOM    120  H26 UNL A   1      21.028  30.484  44.869  1.00  0.00    +0.000 H 
BRANCH   28   27
ATOM     27  C23 UNL A   1      19.627  31.877  44.093  1.00  0.00    +0.000 C 
ATOM    118  H24 UNL A   1      19.263  32.821  44.443  1.00  0.00    +0.000 H 
ATOM    119  H25 UNL A   1      20.370  31.975  43.328  1.00  0.00    +0.000 H 
BRANCH   27   26
ATOM     26  C22 UNL A   1      18.462  31.117  43.474  1.00  0.00    +0.000 C 
ATOM    116  H22 UNL A   1      18.499  31.262  42.414  1.00  0.00    +0.000 H 
ATOM    117  H23 UNL A   1      18.585  30.096  43.773  1.00  0.00    +0.000 H 
BRANCH   26   25
ATOM     25  C21 UNL A   1      17.074  31.530  43.957  1.00  0.00    +0.000 C 
ATOM    114  H20 UNL A   1      17.182  32.033  44.894  1.00  0.00    +0.000 H 
ATOM    115  H21 UNL A   1      16.659  32.153  43.192  1.00  0.00    +0.000 H 
BRANCH   25   24
ATOM    113  H19 UNL A   1      15.226  30.777  44.619  1.00  0.00    +0.000 H 
ATOM    112  H18 UNL A   1      16.579  29.618  44.741  1.00  0.00    +0.000 H 
ATOM     24  C20 UNL A   1      16.096  30.367  44.149  1.00  0.00    +0.000 C 
BRANCH   24   23
ATOM    111  H17 UNL A   1      16.428  29.732  42.149  1.00  0.00    +0.000 H 
ATOM    110  H16 UNL A   1      14.779  30.259  42.474  1.00  0.00    +0.000 H 
ATOM     23  C19 UNL A   1      15.620  29.715  42.849  1.00  0.00    +0.000 C 
BRANCH   23   22
ATOM    109  H15 UNL A   1      14.270  28.117  43.081  1.00  0.00    +0.000 H 
ATOM     22  N2  UNL A   1      15.230  28.335  43.060  1.00  0.00    +0.000 N 
BRANCH   22    2
ATOM      1  O1  UNL A   1      17.349  27.470  43.202  1.00  0.00    +0.000 O 
ATOM      2  C1  UNL A   1      16.133  27.318  43.232  1.00  0.00    +0.000 C 
BRANCH    2    3
ATOM      3  C2  UNL A   1      15.502  25.959  43.447  1.00  0.00    +0.000 C 
ATOM     95  H1  UNL A   1      15.292  25.838  44.489  1.00  0.00    +0.000 H 
ATOM     96  H2  UNL A   1      16.193  25.219  43.100  1.00  0.00    +0.000 H 
BRANCH    3    4
ATOM     97  H3  UNL A   1      13.936  26.751  42.276  1.00  0.00    +0.000 H 
ATOM     98  H4  UNL A   1      13.506  25.380  43.357  1.00  0.00    +0.000 H 
ATOM      4  C3  UNL A   1      14.210  25.791  42.664  1.00  0.00    +0.000 C 
BRANCH    4    5
ATOM      5  C4  UNL A   1      14.249  24.832  41.518  1.00  0.00    +0.000 C 
ATOM      6  N1  UNL A   1      14.789  25.045  40.333  1.00  0.00    +0.000 N 
ATOM      7  C5  UNL A   1      14.553  23.882  39.648  1.00  0.00    +0.000 C 
ATOM     14  C12 UNL A   1      13.913  22.969  40.465  1.00  0.00    +0.000 C 
ATOM     21  O2  UNL A   1      13.690  23.583  41.673  1.00  0.00    +0.000 O 
BRANCH    7    8
ATOM     99  H5  UNL A   1      16.547  22.267  38.864  1.00  0.00    +0.000 H 
ATOM    100  H6  UNL A   1      17.567  22.167  36.666  1.00  0.00    +0.000 H 
ATOM    101  H7  UNL A   1      16.588  23.405  34.823  1.00  0.00    +0.000 H 
ATOM    102  H8  UNL A   1      14.548  24.672  35.158  1.00  0.00    +0.000 H 
ATOM    103  H9  UNL A   1      13.536  24.794  37.361  1.00  0.00    +0.000 H 
ATOM      8  C6  UNL A   1      15.000  23.596  38.301  1.00  0.00    +0.000 C 
ATOM      9  C7  UNL A   1      16.138  22.803  38.082  1.00  0.00    +0.000 C 
ATOM     10  C8  UNL A   1      16.718  22.735  36.817  1.00  0.00    +0.000 C 
ATOM     11  C9  UNL A   1      16.148  23.435  35.756  1.00  0.00    +0.000 C 
ATOM     12  C10 UNL A   1      14.983  24.178  35.953  1.00  0.00    +0.000 C 
ATOM     13  C11 UNL A   1      14.403  24.253  37.221  1.00  0.00    +0.000 C 
ENDBRANCH    7    8
BRANCH   14   15
ATOM    104  H10 UNL A   1      13.475  21.563  38.199  1.00  0.00    +0.000 H 
ATOM    105  H11 UNL A   1      12.999  19.192  38.004  1.00  0.00    +0.000 H 
ATOM    106  H12 UNL A   1      12.791  17.816  39.989  1.00  0.00    +0.000 H 
ATOM    107  H13 UNL A   1      12.987  18.823  42.187  1.00  0.00    +0.000 H 
ATOM    108  H14 UNL A   1      13.438  21.192  42.389  1.00  0.00    +0.000 H 
ATOM     15  C13 UNL A   1      13.526  21.574  40.310  1.00  0.00    +0.000 C 
ATOM     16  C14 UNL A   1      13.381  20.987  39.049  1.00  0.00    +0.000 C 
ATOM     17  C15 UNL A   1      13.106  19.619  38.937  1.00  0.00    +0.000 C 
ATOM     18  C16 UNL A   1      12.976  18.827  40.079  1.00  0.00    +0.000 C 
ATOM     19  C17 UNL A   1      13.094  19.403  41.339  1.00  0.00    +0.000 C 
ATOM     20  C18 UNL A   1      13.361  20.766  41.452  1.00  0.00    +0.000 C 
ENDBRANCH   14   15
ENDBRANCH    4    5
ENDBRANCH    3    4
ENDBRANCH    2    3
ENDBRANCH   22    2
ENDBRANCH   23   22
ENDBRANCH   24   23
ENDBRANCH   25   24
ENDBRANCH   26   25
ENDBRANCH   27   26
ENDBRANCH   28   27
ENDBRANCH   29   28
ENDBRANCH   30   29
ENDBRANCH   32   30
ENDBRANCH   36   35
BRANCH   40   41
ATOM     41  C34 UNL A   1      30.554  29.327  50.867  1.00  0.00    +0.000 C 
ATOM     42  C35 UNL A   1      30.375  29.893  52.139  1.00  0.00    +0.000 C 
ATOM     43  F1  UNL A   1      30.384  31.226  52.292  1.00  0.00    +0.000 F 
ATOM     44  C36 UNL A   1      30.242  29.090  53.268  1.00  0.00    +0.000 C 
ATOM     45  F2  UNL A   1      30.135  29.654  54.481  1.00  0.00    +0.000 F 
ATOM     46  C37 UNL A   1      30.244  27.709  53.144  1.00  0.00    +0.000 C 
ATOM     47  F3  UNL A   1      30.119  26.938  54.234  1.00  0.00    +0.000 F 
ATOM     48  C38 UNL A   1      30.388  27.129  51.894  1.00  0.00    +0.000 C 
ATOM     49  F4  UNL A   1      30.380  25.794  51.772  1.00  0.00    +0.000 F 
ATOM     50  C39 UNL A   1      30.552  27.928  50.765  1.00  0.00    +0.000 C 
ATOM     51  F5  UNL A   1      30.715  27.336  49.573  1.00  0.00    +0.000 F 
ENDBRANCH   40   41
BRANCH   57   58
ATOM     65  C49 UNL A   1      37.989  33.401  47.844  1.00  0.00    +0.000 C 
ATOM     66  F9  UNL A   1      38.604  34.371  48.534  1.00  0.00    +0.000 F 
ATOM     67  C50 UNL A   1      36.601  33.322  47.844  1.00  0.00    +0.000 C 
ATOM     68  F10 UNL A   1      35.901  34.223  48.550  1.00  0.00    +0.000 F 
ATOM     58  C45 UNL A   1      35.936  32.329  47.110  1.00  0.00    +0.000 C 
ATOM     59  C46 UNL A   1      36.711  31.412  46.385  1.00  0.00    +0.000 C 
ATOM     60  F6  UNL A   1      36.119  30.434  45.682  1.00  0.00    +0.000 F 
ATOM     61  C47 UNL A   1      38.101  31.480  46.406  1.00  0.00    +0.000 C 
ATOM     62  F7  UNL A   1      38.824  30.573  45.736  1.00  0.00    +0.000 F 
ATOM     63  C48 UNL A   1      38.738  32.478  47.130  1.00  0.00    +0.000 C 
ATOM     64  F8  UNL A   1      40.077  32.546  47.143  1.00  0.00    +0.000 F 
ENDBRANCH   57   58
BRANCH   72   73
ATOM     73  C54 UNL A   1      31.255  35.360  42.928  1.00  0.00    +0.000 C 
ATOM     74  C55 UNL A   1      31.114  36.738  43.141  1.00  0.00    +0.000 C 
ATOM     75  F11 UNL A   1      30.838  37.200  44.369  1.00  0.00    +0.000 F 
ATOM     76  C56 UNL A   1      31.231  37.645  42.090  1.00  0.00    +0.000 C 
ATOM     77  F12 UNL A   1      31.065  38.954  42.315  1.00  0.00    +0.000 F 
ATOM     78  C57 UNL A   1      31.515  37.192  40.810  1.00  0.00    +0.000 C 
ATOM     79  F13 UNL A   1      31.641  38.065  39.801  1.00  0.00    +0.000 F 
ATOM     80  C58 UNL A   1      31.666  35.833  40.576  1.00  0.00    +0.000 C 
ATOM     81  F14 UNL A   1      31.956  35.394  39.344  1.00  0.00    +0.000 F 
ATOM     82  C59 UNL A   1      31.526  34.924  41.623  1.00  0.00    +0.000 C 
ATOM     83  F15 UNL A   1      31.679  33.617  41.370  1.00  0.00    +0.000 F 
ENDBRANCH   72   73
TORSDOF 19
ENDMDL
MODEL 7
REMARK VINA RESULT:     -11.6     25.699     33.698
ROOT
ATOM    129  H35 UNL A   1      22.345  19.963   4.951  1.00  0.00    +0.000 H 
ATOM    130  H36 UNL A   1      20.131  16.527   5.707  1.00  0.00    +0.000 H 
ATOM    131  H37 UNL A   1      15.354  18.018   6.115  1.00  0.00    +0.000 H 
ATOM    132  H38 UNL A   1      14.762  15.552   6.466  1.00  0.00    +0.000 H 
ATOM    133  H39 UNL A   1      24.310  12.900   4.819  1.00  0.00    +0.000 H 
ATOM    134  H40 UNL A   1      25.000  15.364   4.947  1.00  0.00    +0.000 H 
ATOM     36  C30 UNL A   1      22.793  17.150   5.106  1.00  0.00    +0.000 C 
ATOM     37  C31 UNL A   1      22.762  15.653   5.177  1.00  0.00    +0.000 C 
ATOM     38  N4  UNL A   1      21.738  14.851   5.323  1.00  0.00    +0.000 N 
ATOM     39  C32 UNL A   1      22.257  13.566   5.252  1.00  0.00    +0.000 C 
ATOM     40  C33 UNL A   1      21.608  12.387   5.406  1.00  0.00    +0.000 C 
ATOM     52  C40 UNL A   1      20.202  12.273   5.687  1.00  0.00    +0.000 C 
ATOM     53  C41 UNL A   1      19.459  11.133   5.935  1.00  0.00    +0.000 C 
ATOM     54  C42 UNL A   1      18.124  11.514   6.120  1.00  0.00    +0.000 C 
ATOM     55  C43 UNL A   1      18.043  12.894   6.025  1.00  0.00    +0.000 C 
ATOM     56  N5  UNL A   1      19.324  13.346   5.757  1.00  0.00    +0.000 N 
ATOM     57  C44 UNL A   1      16.884  13.737   6.169  1.00  0.00    +0.000 C 
ATOM     69  C51 UNL A   1      16.883  15.091   6.094  1.00  0.00    +0.000 C 
ATOM     70  N6  UNL A   1      17.945  15.951   5.861  1.00  0.00    +0.000 N 
ATOM     71  C52 UNL A   1      17.437  17.160   5.865  1.00  0.00    +0.000 C 
ATOM     72  C53 UNL A   1      18.132  18.477   5.668  1.00  0.00    +0.000 C 
ATOM     84  C60 UNL A   1      19.471  18.495   5.533  1.00  0.00    +0.000 C 
ATOM     85  C61 UNL A   1      20.282  19.689   5.324  1.00  0.00    +0.000 C 
ATOM     86  C62 UNL A   1      21.560  19.322   5.144  1.00  0.00    +0.000 C 
ATOM     87  C63 UNL A   1      21.663  17.866   5.265  1.00  0.00    +0.000 C 
ATOM     88  N7  UNL A   1      20.379  17.464   5.533  1.00  0.00    +0.000 N 
ATOM     89  C64 UNL A   1      15.986  17.203   6.090  1.00  0.00    +0.000 C 
ATOM     90  C65 UNL A   1      15.703  15.917   6.253  1.00  0.00    +0.000 C 
ATOM     91  C66 UNL A   1      23.675  13.694   4.997  1.00  0.00    +0.000 C 
ATOM     92  C67 UNL A   1      24.051  14.964   5.020  1.00  0.00    +0.000 C 
ATOM    125  H31 UNL A   1      19.825  10.169   5.976  1.00  0.00    +0.000 H 
ATOM    126  H32 UNL A   1      17.334  10.874   6.299  1.00  0.00    +0.000 H 
ATOM    127  H33 UNL A   1      19.575  14.291   5.634  1.00  0.00    +0.000 H 
ATOM    128  H34 UNL A   1      19.929  20.660   5.315  1.00  0.00    +0.000 H 
ENDROOT
BRANCH   36   35
ATOM     33  C27 UNL A   1      25.748  18.383   3.082  1.00  0.00    +0.000 C 
ATOM     34  C28 UNL A   1      24.484  17.874   3.384  1.00  0.00    +0.000 C 
ATOM     35  C29 UNL A   1      24.042  17.845   4.716  1.00  0.00    +0.000 C 
ATOM    135  H41 UNL A   1      24.481  18.455   6.694  1.00  0.00    +0.000 H 
ATOM    136  H42 UNL A   1      26.569  19.543   6.121  1.00  0.00    +0.000 H 
ATOM    123  H29 UNL A   1      26.094  18.375   2.109  1.00  0.00    +0.000 H 
ATOM    124  H30 UNL A   1      23.877  17.519   2.630  1.00  0.00    +0.000 H 
ATOM     93  C68 UNL A   1      24.818  18.446   5.718  1.00  0.00    +0.000 C 
ATOM     94  C69 UNL A   1      26.038  19.027   5.404  1.00  0.00    +0.000 C 
ATOM     32  C26 UNL A   1      26.539  18.905   4.107  1.00  0.00    +0.000 C 
BRANCH   32   30
ATOM     30  C25 UNL A   1      27.945  19.252   3.819  1.00  0.00    +0.000 C 
ATOM     31  O3  UNL A   1      28.205  20.130   3.011  1.00  0.00    +0.000 O 
BRANCH   30   29
ATOM    122  H28 UNL A   1      29.440  19.034   5.134  1.00  0.00    +0.000 H 
ATOM     29  N3  UNL A   1      28.942  18.538   4.444  1.00  0.00    +0.000 N 
BRANCH   29   28
ATOM    121  H27 UNL A   1      30.384  17.192   3.894  1.00  0.00    +0.000 H 
ATOM     28  C24 UNL A   1      29.372  17.159   4.240  1.00  0.00    +0.000 C 
ATOM    120  H26 UNL A   1      28.716  16.702   3.529  1.00  0.00    +0.000 H 
BRANCH   28   27
ATOM     27  C23 UNL A   1      29.360  16.323   5.516  1.00  0.00    +0.000 C 
ATOM    118  H24 UNL A   1      29.916  15.426   5.335  1.00  0.00    +0.000 H 
ATOM    119  H25 UNL A   1      29.791  16.931   6.284  1.00  0.00    +0.000 H 
BRANCH   27   26
ATOM     26  C22 UNL A   1      27.970  15.933   5.999  1.00  0.00    +0.000 C 
ATOM    116  H22 UNL A   1      27.256  16.326   5.304  1.00  0.00    +0.000 H 
ATOM    117  H23 UNL A   1      27.968  14.864   6.058  1.00  0.00    +0.000 H 
BRANCH   26   25
ATOM     25  C21 UNL A   1      27.592  16.429   7.393  1.00  0.00    +0.000 C 
ATOM    114  H20 UNL A   1      26.542  16.631   7.403  1.00  0.00    +0.000 H 
ATOM    115  H21 UNL A   1      27.878  15.658   8.077  1.00  0.00    +0.000 H 
BRANCH   25   24
ATOM    113  H19 UNL A   1      27.782  18.523   7.426  1.00  0.00    +0.000 H 
ATOM    112  H18 UNL A   1      29.334  17.642   7.480  1.00  0.00    +0.000 H 
ATOM     24  C20 UNL A   1      28.327  17.698   7.836  1.00  0.00    +0.000 C 
BRANCH   24   23
ATOM    111  H17 UNL A   1      29.280  17.504   9.725  1.00  0.00    +0.000 H 
ATOM    110  H16 UNL A   1      27.522  17.429   9.793  1.00  0.00    +0.000 H 
ATOM     23  C19 UNL A   1      28.366  17.914   9.351  1.00  0.00    +0.000 C 
BRANCH   23   22
ATOM    109  H15 UNL A   1      28.536  19.978   8.981  1.00  0.00    +0.000 H 
ATOM     22  N2  UNL A   1      28.328  19.324   9.686  1.00  0.00    +0.000 N 
BRANCH   22    2
ATOM      1  O1  UNL A   1      28.404  19.267  11.977  1.00  0.00    +0.000 O 
ATOM      2  C1  UNL A   1      28.017  19.789  10.937  1.00  0.00    +0.000 C 
BRANCH    2    3
ATOM      3  C2  UNL A   1      27.124  21.011  10.939  1.00  0.00    +0.000 C 
ATOM     95  H1  UNL A   1      27.693  21.854  10.609  1.00  0.00    +0.000 H 
ATOM     96  H2  UNL A   1      26.762  21.150  11.937  1.00  0.00    +0.000 H 
BRANCH    3    4
ATOM     97  H3  UNL A   1      26.268  20.876   9.016  1.00  0.00    +0.000 H 
ATOM     98  H4  UNL A   1      25.253  21.644  10.285  1.00  0.00    +0.000 H 
ATOM      4  C3  UNL A   1      25.918  20.847  10.027  1.00  0.00    +0.000 C 
BRANCH    4    5
ATOM      5  C4  UNL A   1      25.123  19.593  10.198  1.00  0.00    +0.000 C 
ATOM      6  N1  UNL A   1      24.819  18.721   9.255  1.00  0.00    +0.000 N 
ATOM      7  C5  UNL A   1      24.079  17.771   9.909  1.00  0.00    +0.000 C 
ATOM     14  C12 UNL A   1      23.999  18.073  11.256  1.00  0.00    +0.000 C 
ATOM     21  O2  UNL A   1      24.653  19.265  11.450  1.00  0.00    +0.000 O 
BRANCH    7    8
ATOM     99  H5  UNL A   1      21.538  17.228   9.241  1.00  0.00    +0.000 H 
ATOM    100  H6  UNL A   1      20.606  15.059   8.684  1.00  0.00    +0.000 H 
ATOM    101  H7  UNL A   1      22.076  13.151   8.394  1.00  0.00    +0.000 H 
ATOM    102  H8  UNL A   1      24.478  13.430   8.578  1.00  0.00    +0.000 H 
ATOM    103  H9  UNL A   1      25.414  15.593   9.157  1.00  0.00    +0.000 H 
ATOM      8  C6  UNL A   1      23.545  16.564   9.312  1.00  0.00    +0.000 C 
ATOM      9  C7  UNL A   1      22.161  16.413   9.129  1.00  0.00    +0.000 C 
ATOM     10  C8  UNL A   1      21.626  15.170   8.797  1.00  0.00    +0.000 C 
ATOM     11  C9  UNL A   1      22.472  14.078   8.617  1.00  0.00    +0.000 C 
ATOM     12  C10 UNL A   1      23.853  14.235   8.739  1.00  0.00    +0.000 C 
ATOM     13  C11 UNL A   1      24.392  15.477   9.078  1.00  0.00    +0.000 C 
ENDBRANCH    7    8
BRANCH   14   15
ATOM    104  H10 UNL A   1      24.147  15.455  11.906  1.00  0.00    +0.000 H 
ATOM    105  H11 UNL A   1      23.359  14.394  13.942  1.00  0.00    +0.000 H 
ATOM    106  H12 UNL A   1      22.225  15.697  15.643  1.00  0.00    +0.000 H 
ATOM    107  H13 UNL A   1      21.809  18.060  15.283  1.00  0.00    +0.000 H 
ATOM    108  H14 UNL A   1      22.571  19.118  13.244  1.00  0.00    +0.000 H 
ATOM     15  C13 UNL A   1      23.451  17.382  12.415  1.00  0.00    +0.000 C 
ATOM     16  C14 UNL A   1      23.658  16.015  12.622  1.00  0.00    +0.000 C 
ATOM     17  C15 UNL A   1      23.203  15.403  13.796  1.00  0.00    +0.000 C 
ATOM     18  C16 UNL A   1      22.542  16.150  14.772  1.00  0.00    +0.000 C 
ATOM     19  C17 UNL A   1      22.309  17.506  14.569  1.00  0.00    +0.000 C 
ATOM     20  C18 UNL A   1      22.755  18.114  13.396  1.00  0.00    +0.000 C 
ENDBRANCH   14   15
ENDBRANCH    4    5
ENDBRANCH    3    4
ENDBRANCH    2    3
ENDBRANCH   22    2
ENDBRANCH   23   22
ENDBRANCH   24   23
ENDBRANCH   25   24
ENDBRANCH   26   25
ENDBRANCH   27   26
ENDBRANCH   28   27
ENDBRANCH   29   28
ENDBRANCH   30   29
ENDBRANCH   32   30
ENDBRANCH   36   35
BRANCH   40   41
ATOM     41  C34 UNL A   1      22.423  11.134   5.276  1.00  0.00    +0.000 C 
ATOM     42  C35 UNL A   1      22.953  10.483   6.401  1.00  0.00    +0.000 C 
ATOM     43  F1  UNL A   1      22.747  10.983   7.629  1.00  0.00    +0.000 F 
ATOM     44  C36 UNL A   1      23.742   9.344   6.264  1.00  0.00    +0.000 C 
ATOM     45  F2  UNL A   1      24.288   8.776   7.349  1.00  0.00    +0.000 F 
ATOM     46  C37 UNL A   1      23.984   8.812   5.008  1.00  0.00    +0.000 C 
ATOM     47  F3  UNL A   1      24.748   7.718   4.879  1.00  0.00    +0.000 F 
ATOM     48  C38 UNL A   1      23.446   9.421   3.885  1.00  0.00    +0.000 C 
ATOM     49  F4  UNL A   1      23.672   8.901   2.670  1.00  0.00    +0.000 F 
ATOM     50  C39 UNL A   1      22.680  10.577   4.014  1.00  0.00    +0.000 C 
ATOM     51  F5  UNL A   1      22.196  11.158   2.906  1.00  0.00    +0.000 F 
ENDBRANCH   40   41
BRANCH   57   58
ATOM     65  C49 UNL A   1      13.527  12.037   5.614  1.00  0.00    +0.000 C 
ATOM     66  F9  UNL A   1      12.774  11.625   4.586  1.00  0.00    +0.000 F 
ATOM     67  C50 UNL A   1      14.773  12.610   5.377  1.00  0.00    +0.000 C 
ATOM     68  F10 UNL A   1      15.200  12.728   4.111  1.00  0.00    +0.000 F 
ATOM     58  C45 UNL A   1      15.568  13.069   6.437  1.00  0.00    +0.000 C 
ATOM     59  C46 UNL A   1      15.076  12.926   7.743  1.00  0.00    +0.000 C 
ATOM     60  F6  UNL A   1      15.809  13.336   8.789  1.00  0.00    +0.000 F 
ATOM     61  C47 UNL A   1      13.840  12.332   7.978  1.00  0.00    +0.000 C 
ATOM     62  F7  UNL A   1      13.404  12.171   9.235  1.00  0.00    +0.000 F 
ATOM     63  C48 UNL A   1      13.064  11.894   6.914  1.00  0.00    +0.000 C 
ATOM     64  F8  UNL A   1      11.870  11.329   7.142  1.00  0.00    +0.000 F 
ENDBRANCH   57   58
BRANCH   72   73
ATOM     73  C54 UNL A   1      17.376  19.754   5.646  1.00  0.00    +0.000 C 
ATOM     74  C55 UNL A   1      16.962  20.321   4.434  1.00  0.00    +0.000 C 
ATOM     75  F11 UNL A   1      17.293  19.734   3.274  1.00  0.00    +0.000 F 
ATOM     76  C56 UNL A   1      16.225  21.503   4.406  1.00  0.00    +0.000 C 
ATOM     77  F12 UNL A   1      15.864  22.038   3.232  1.00  0.00    +0.000 F 
ATOM     78  C57 UNL A   1      15.870  22.129   5.591  1.00  0.00    +0.000 C 
ATOM     79  F13 UNL A   1      15.151  23.260   5.565  1.00  0.00    +0.000 F 
ATOM     80  C58 UNL A   1      16.264  21.584   6.804  1.00  0.00    +0.000 C 
ATOM     81  F14 UNL A   1      15.909  22.177   7.952  1.00  0.00    +0.000 F 
ATOM     82  C59 UNL A   1      17.019  20.413   6.832  1.00  0.00    +0.000 C 
ATOM     83  F15 UNL A   1      17.385  19.906   8.018  1.00  0.00    +0.000 F 
ENDBRANCH   72   73
TORSDOF 19
ENDMDL
MODEL 8
REMARK VINA RESULT:     -11.5      3.808      5.393
ROOT
ATOM    129  H35 UNL A   1      53.274  19.278   9.210  1.00  0.00    +0.000 H 
ATOM    130  H36 UNL A   1      55.017  19.757  12.953  1.00  0.00    +0.000 H 
ATOM    131  H37 UNL A   1      59.707  18.016  12.532  1.00  0.00    +0.000 H 
ATOM    132  H38 UNL A   1      60.025  18.684  14.983  1.00  0.00    +0.000 H 
ATOM    133  H39 UNL A   1      50.846  22.761  15.189  1.00  0.00    +0.000 H 
ATOM    134  H40 UNL A   1      50.335  21.684  12.922  1.00  0.00    +0.000 H 
ATOM     36  C30 UNL A   1      52.591  20.430  11.729  1.00  0.00    +0.000 C 
ATOM     37  C31 UNL A   1      52.493  21.011  13.108  1.00  0.00    +0.000 C 
ATOM     38  N4  UNL A   1      53.401  21.073  14.048  1.00  0.00    +0.000 N 
ATOM     39  C32 UNL A   1      52.812  21.773  15.091  1.00  0.00    +0.000 C 
ATOM     40  C33 UNL A   1      53.323  22.048  16.315  1.00  0.00    +0.000 C 
ATOM     52  C40 UNL A   1      54.629  21.632  16.753  1.00  0.00    +0.000 C 
ATOM     53  C41 UNL A   1      55.215  21.793  17.996  1.00  0.00    +0.000 C 
ATOM     54  C42 UNL A   1      56.509  21.258  17.939  1.00  0.00    +0.000 C 
ATOM     55  C43 UNL A   1      56.712  20.731  16.673  1.00  0.00    +0.000 C 
ATOM     56  N5  UNL A   1      55.552  20.970  15.956  1.00  0.00    +0.000 N 
ATOM     57  C44 UNL A   1      57.878  20.060  16.158  1.00  0.00    +0.000 C 
ATOM     69  C51 UNL A   1      57.997  19.539  14.912  1.00  0.00    +0.000 C 
ATOM     70  N6  UNL A   1      57.074  19.536  13.877  1.00  0.00    +0.000 N 
ATOM     71  C52 UNL A   1      57.661  18.930  12.873  1.00  0.00    +0.000 C 
ATOM     72  C53 UNL A   1      57.123  18.639  11.501  1.00  0.00    +0.000 C 
ATOM     84  C60 UNL A   1      55.847  18.957  11.219  1.00  0.00    +0.000 C 
ATOM     85  C61 UNL A   1      55.189  18.749   9.933  1.00  0.00    +0.000 C 
ATOM     86  C62 UNL A   1      53.951  19.264   9.989  1.00  0.00    +0.000 C 
ATOM     87  C63 UNL A   1      53.715  19.804  11.330  1.00  0.00    +0.000 C 
ATOM     88  N7  UNL A   1      54.882  19.544  12.002  1.00  0.00    +0.000 N 
ATOM     89  C64 UNL A   1      59.033  18.489  13.155  1.00  0.00    +0.000 C 
ATOM     90  C65 UNL A   1      59.179  18.858  14.420  1.00  0.00    +0.000 C 
ATOM     91  C66 UNL A   1      51.490  22.161  14.649  1.00  0.00    +0.000 C 
ATOM     92  C67 UNL A   1      51.215  21.647  13.459  1.00  0.00    +0.000 C 
ATOM    125  H31 UNL A   1      54.777  22.230  18.820  1.00  0.00    +0.000 H 
ATOM    126  H32 UNL A   1      57.194  21.256  18.711  1.00  0.00    +0.000 H 
ATOM    127  H33 UNL A   1      55.404  20.708  15.018  1.00  0.00    +0.000 H 
ATOM    128  H34 UNL A   1      55.608  18.282   9.114  1.00  0.00    +0.000 H 
ENDROOT
BRANCH   36   35
ATOM     33  C27 UNL A   1      49.493  19.958   9.602  1.00  0.00    +0.000 C 
ATOM     34  C28 UNL A   1      50.402  19.805  10.649  1.00  0.00    +0.000 C 
ATOM     35  C29 UNL A   1      51.506  20.666  10.750  1.00  0.00    +0.000 C 
ATOM    135  H41 UNL A   1      52.410  22.412   9.965  1.00  0.00    +0.000 H 
ATOM    136  H42 UNL A   1      50.698  22.805   8.294  1.00  0.00    +0.000 H 
ATOM    123  H29 UNL A   1      48.699  19.306   9.501  1.00  0.00    +0.000 H 
ATOM    124  H30 UNL A   1      50.264  19.059  11.347  1.00  0.00    +0.000 H 
ATOM     93  C68 UNL A   1      51.617  21.757   9.873  1.00  0.00    +0.000 C 
ATOM     94  C69 UNL A   1      50.666  21.959   8.883  1.00  0.00    +0.000 C 
ATOM     32  C26 UNL A   1      49.666  21.004   8.692  1.00  0.00    +0.000 C 
BRANCH   32   30
ATOM     30  C25 UNL A   1      48.827  21.041   7.477  1.00  0.00    +0.000 C 
ATOM     31  O3  UNL A   1      48.400  22.107   7.061  1.00  0.00    +0.000 O 
BRANCH   30   29
ATOM    122  H28 UNL A   1      47.581  19.549   6.995  1.00  0.00    +0.000 H 
ATOM     29  N3  UNL A   1      48.508  19.853   6.860  1.00  0.00    +0.000 N 
BRANCH   29   28
ATOM    121  H27 UNL A   1      49.993  19.602   5.472  1.00  0.00    +0.000 H 
ATOM     28  C24 UNL A   1      49.334  18.977   6.037  1.00  0.00    +0.000 C 
ATOM    120  H26 UNL A   1      48.691  18.395   5.410  1.00  0.00    +0.000 H 
BRANCH   28   27
ATOM     27  C23 UNL A   1      50.206  18.023   6.849  1.00  0.00    +0.000 C 
ATOM    118  H24 UNL A   1      49.785  17.937   7.830  1.00  0.00    +0.000 H 
ATOM    119  H25 UNL A   1      50.218  17.093   6.319  1.00  0.00    +0.000 H 
BRANCH   27   26
ATOM     26  C22 UNL A   1      51.657  18.463   6.990  1.00  0.00    +0.000 C 
ATOM    116  H22 UNL A   1      51.921  19.017   6.113  1.00  0.00    +0.000 H 
ATOM    117  H23 UNL A   1      51.704  19.038   7.892  1.00  0.00    +0.000 H 
BRANCH   26   25
ATOM     25  C21 UNL A   1      52.674  17.337   7.159  1.00  0.00    +0.000 C 
ATOM    114  H20 UNL A   1      53.311  17.582   7.983  1.00  0.00    +0.000 H 
ATOM    115  H21 UNL A   1      52.111  16.441   7.317  1.00  0.00    +0.000 H 
BRANCH   25   24
ATOM    113  H19 UNL A   1      53.612  16.024   5.811  1.00  0.00    +0.000 H 
ATOM    112  H18 UNL A   1      54.508  17.541   6.106  1.00  0.00    +0.000 H 
ATOM     24  C20 UNL A   1      53.555  17.086   5.932  1.00  0.00    +0.000 C 
BRANCH   24   23
ATOM    111  H17 UNL A   1      53.717  18.307   4.200  1.00  0.00    +0.000 H 
ATOM    110  H16 UNL A   1      52.078  18.156   4.825  1.00  0.00    +0.000 H 
ATOM     23  C19 UNL A   1      52.993  17.642   4.621  1.00  0.00    +0.000 C 
BRANCH   23   22
ATOM    109  H15 UNL A   1      53.107  16.675   2.756  1.00  0.00    +0.000 H 
ATOM     22  N2  UNL A   1      52.736  16.585   3.664  1.00  0.00    +0.000 N 
BRANCH   22    2
ATOM      1  O1  UNL A   1      52.363  14.323   3.705  1.00  0.00    +0.000 O 
ATOM      2  C1  UNL A   1      52.002  15.466   3.961  1.00  0.00    +0.000 C 
BRANCH    2    3
ATOM      3  C2  UNL A   1      50.673  15.756   4.625  1.00  0.00    +0.000 C 
ATOM     95  H1  UNL A   1      50.320  16.708   4.289  1.00  0.00    +0.000 H 
ATOM     96  H2  UNL A   1      50.828  15.749   5.684  1.00  0.00    +0.000 H 
BRANCH    3    4
ATOM     97  H3  UNL A   1      49.776  13.877   4.966  1.00  0.00    +0.000 H 
ATOM     98  H4  UNL A   1      49.763  14.468   3.268  1.00  0.00    +0.000 H 
ATOM      4  C3  UNL A   1      49.624  14.703   4.303  1.00  0.00    +0.000 C 
BRANCH    4    5
ATOM      5  C4  UNL A   1      48.197  15.130   4.427  1.00  0.00    +0.000 C 
ATOM      6  N1  UNL A   1      47.219  14.449   4.994  1.00  0.00    +0.000 N 
ATOM      7  C5  UNL A   1      46.121  15.254   4.839  1.00  0.00    +0.000 C 
ATOM     14  C12 UNL A   1      46.481  16.437   4.221  1.00  0.00    +0.000 C 
ATOM     21  O2  UNL A   1      47.820  16.358   3.928  1.00  0.00    +0.000 O 
BRANCH    7    8
ATOM     99  H5  UNL A   1      44.033  16.923   5.063  1.00  0.00    +0.000 H 
ATOM    100  H6  UNL A   1      41.995  16.551   6.326  1.00  0.00    +0.000 H 
ATOM    101  H7  UNL A   1      41.558  14.373   7.299  1.00  0.00    +0.000 H 
ATOM    102  H8  UNL A   1      43.115  12.548   6.942  1.00  0.00    +0.000 H 
ATOM    103  H9  UNL A   1      45.166  12.921   5.699  1.00  0.00    +0.000 H 
ATOM      8  C6  UNL A   1      44.794  14.969   5.343  1.00  0.00    +0.000 C 
ATOM      9  C7  UNL A   1      43.852  16.000   5.488  1.00  0.00    +0.000 C 
ATOM     10  C8  UNL A   1      42.674  15.784   6.203  1.00  0.00    +0.000 C 
ATOM     11  C9  UNL A   1      42.418  14.529   6.750  1.00  0.00    +0.000 C 
ATOM     12  C10 UNL A   1      43.322  13.484   6.559  1.00  0.00    +0.000 C 
ATOM     13  C11 UNL A   1      44.505  13.698   5.849  1.00  0.00    +0.000 C 
ENDBRANCH    7    8
BRANCH   14   15
ATOM    104  H10 UNL A   1      46.698  18.866   5.384  1.00  0.00    +0.000 H 
ATOM    105  H11 UNL A   1      45.612  20.928   4.707  1.00  0.00    +0.000 H 
ATOM    106  H12 UNL A   1      44.074  20.944   2.834  1.00  0.00    +0.000 H 
ATOM    107  H13 UNL A   1      43.557  18.878   1.671  1.00  0.00    +0.000 H 
ATOM    108  H14 UNL A   1      44.618  16.814   2.358  1.00  0.00    +0.000 H 
ATOM     15  C13 UNL A   1      45.772  17.670   3.910  1.00  0.00    +0.000 C 
ATOM     16  C14 UNL A   1      46.038  18.862   4.591  1.00  0.00    +0.000 C 
ATOM     17  C15 UNL A   1      45.412  20.052   4.200  1.00  0.00    +0.000 C 
ATOM     18  C16 UNL A   1      44.518  20.060   3.128  1.00  0.00    +0.000 C 
ATOM     19  C17 UNL A   1      44.227  18.878   2.457  1.00  0.00    +0.000 C 
ATOM     20  C18 UNL A   1      44.844  17.692   2.851  1.00  0.00    +0.000 C 
ENDBRANCH   14   15
ENDBRANCH    4    5
ENDBRANCH    3    4
ENDBRANCH    2    3
ENDBRANCH   22    2
ENDBRANCH   23   22
ENDBRANCH   24   23
ENDBRANCH   25   24
ENDBRANCH   26   25
ENDBRANCH   27   26
ENDBRANCH   28   27
ENDBRANCH   29   28
ENDBRANCH   30   29
ENDBRANCH   32   30
ENDBRANCH   36   35
BRANCH   40   41
ATOM     41  C34 UNL A   1      52.459  22.832  17.258  1.00  0.00    +0.000 C 
ATOM     42  C35 UNL A   1      51.566  22.197  18.136  1.00  0.00    +0.000 C 
ATOM     43  F1  UNL A   1      51.459  20.860  18.138  1.00  0.00    +0.000 F 
ATOM     44  C36 UNL A   1      50.741  22.938  18.977  1.00  0.00    +0.000 C 
ATOM     45  F2  UNL A   1      49.851  22.311  19.761  1.00  0.00    +0.000 F 
ATOM     46  C37 UNL A   1      50.818  24.322  18.987  1.00  0.00    +0.000 C 
ATOM     47  F3  UNL A   1      50.019  25.032  19.796  1.00  0.00    +0.000 F 
ATOM     48  C38 UNL A   1      51.715  24.969  18.151  1.00  0.00    +0.000 C 
ATOM     49  F4  UNL A   1      51.797  26.307  18.168  1.00  0.00    +0.000 F 
ATOM     50  C39 UNL A   1      52.522  24.234  17.286  1.00  0.00    +0.000 C 
ATOM     51  F5  UNL A   1      53.360  24.891  16.471  1.00  0.00    +0.000 F 
ENDBRANCH   40   41
BRANCH   57   58
ATOM     65  C49 UNL A   1      61.076  20.824  18.069  1.00  0.00    +0.000 C 
ATOM     66  F9  UNL A   1      61.931  21.844  18.218  1.00  0.00    +0.000 F 
ATOM     67  C50 UNL A   1      59.952  20.972  17.262  1.00  0.00    +0.000 C 
ATOM     68  F10 UNL A   1      59.743  22.149  16.654  1.00  0.00    +0.000 F 
ATOM     58  C45 UNL A   1      59.056  19.909  17.074  1.00  0.00    +0.000 C 
ATOM     59  C46 UNL A   1      59.320  18.698  17.729  1.00  0.00    +0.000 C 
ATOM     60  F6  UNL A   1      58.480  17.660  17.592  1.00  0.00    +0.000 F 
ATOM     61  C47 UNL A   1      60.432  18.561  18.554  1.00  0.00    +0.000 C 
ATOM     62  F7  UNL A   1      60.647  17.406  19.200  1.00  0.00    +0.000 F 
ATOM     63  C48 UNL A   1      61.313  19.621  18.717  1.00  0.00    +0.000 C 
ATOM     64  F8  UNL A   1      62.388  19.484  19.506  1.00  0.00    +0.000 F 
ENDBRANCH   57   58
BRANCH   72   73
ATOM     73  C54 UNL A   1      57.962  17.989  10.464  1.00  0.00    +0.000 C 
ATOM     74  C55 UNL A   1      57.995  16.593  10.341  1.00  0.00    +0.000 C 
ATOM     75  F11 UNL A   1      57.304  15.830  11.200  1.00  0.00    +0.000 F 
ATOM     76  C56 UNL A   1      58.755  15.975   9.350  1.00  0.00    +0.000 C 
ATOM     77  F12 UNL A   1      58.791  14.639   9.271  1.00  0.00    +0.000 F 
ATOM     78  C57 UNL A   1      59.480  16.742   8.450  1.00  0.00    +0.000 C 
ATOM     79  F13 UNL A   1      60.202  16.149   7.490  1.00  0.00    +0.000 F 
ATOM     80  C58 UNL A   1      59.458  18.125   8.548  1.00  0.00    +0.000 C 
ATOM     81  F14 UNL A   1      60.144  18.870   7.670  1.00  0.00    +0.000 F 
ATOM     82  C59 UNL A   1      58.715  18.744   9.552  1.00  0.00    +0.000 C 
ATOM     83  F15 UNL A   1      58.709  20.082   9.623  1.00  0.00    +0.000 F 
ENDBRANCH   72   73
TORSDOF 19
ENDMDL
MODEL 9
REMARK VINA RESULT:     -11.5     45.002     50.094
ROOT
ATOM    129  H35 UNL A   1      12.385  52.110   7.229  1.00  0.00    +0.000 H 
ATOM    130  H36 UNL A   1      14.667  51.273   3.858  1.00  0.00    +0.000 H 
ATOM    131  H37 UNL A   1      13.536  46.557   2.555  1.00  0.00    +0.000 H 
ATOM    132  H38 UNL A   1      15.146  46.864   0.588  1.00  0.00    +0.000 H 
ATOM    133  H39 UNL A   1      16.545  56.495   3.077  1.00  0.00    +0.000 H 
ATOM    134  H40 UNL A   1      15.338  56.080   5.298  1.00  0.00    +0.000 H 
ATOM     36  C30 UNL A   1      14.167  53.495   5.484  1.00  0.00    +0.000 C 
ATOM     37  C31 UNL A   1      15.072  54.011   4.406  1.00  0.00    +0.000 C 
ATOM     38  N4  UNL A   1      15.514  53.405   3.334  1.00  0.00    +0.000 N 
ATOM     39  C32 UNL A   1      16.254  54.356   2.645  1.00  0.00    +0.000 C 
ATOM     40  C33 UNL A   1      16.965  54.203   1.503  1.00  0.00    +0.000 C 
ATOM     52  C40 UNL A   1      17.078  52.961   0.785  1.00  0.00    +0.000 C 
ATOM     53  C41 UNL A   1      17.831  52.678  -0.340  1.00  0.00    +0.000 C 
ATOM     54  C42 UNL A   1      17.593  51.345  -0.699  1.00  0.00    +0.000 C 
ATOM     55  C43 UNL A   1      16.721  50.790   0.224  1.00  0.00    +0.000 C 
ATOM     56  N5  UNL A   1      16.411  51.792   1.126  1.00  0.00    +0.000 N 
ATOM     57  C44 UNL A   1      16.210  49.444   0.277  1.00  0.00    +0.000 C 
ATOM     69  C51 UNL A   1      15.380  48.957   1.232  1.00  0.00    +0.000 C 
ATOM     70  N6  UNL A   1      14.838  49.608   2.330  1.00  0.00    +0.000 N 
ATOM     71  C52 UNL A   1      14.089  48.721   2.940  1.00  0.00    +0.000 C 
ATOM     72  C53 UNL A   1      13.270  48.877   4.190  1.00  0.00    +0.000 C 
ATOM     84  C60 UNL A   1      13.323  50.041   4.864  1.00  0.00    +0.000 C 
ATOM     85  C61 UNL A   1      12.578  50.346   6.082  1.00  0.00    +0.000 C 
ATOM     86  C62 UNL A   1      12.806  51.623   6.422  1.00  0.00    +0.000 C 
ATOM     87  C63 UNL A   1      13.745  52.216   5.468  1.00  0.00    +0.000 C 
ATOM     88  N7  UNL A   1      14.025  51.192   4.599  1.00  0.00    +0.000 N 
ATOM     89  C64 UNL A   1      14.060  47.405   2.289  1.00  0.00    +0.000 C 
ATOM     90  C65 UNL A   1      14.887  47.594   1.269  1.00  0.00    +0.000 C 
ATOM     91  C66 UNL A   1      16.156  55.592   3.391  1.00  0.00    +0.000 C 
ATOM     92  C67 UNL A   1      15.502  55.412   4.529  1.00  0.00    +0.000 C 
ATOM    125  H31 UNL A   1      18.460  53.333  -0.828  1.00  0.00    +0.000 H 
ATOM    126  H32 UNL A   1      18.000  50.859  -1.514  1.00  0.00    +0.000 H 
ATOM    127  H33 UNL A   1      15.807  51.691   1.898  1.00  0.00    +0.000 H 
ATOM    128  H34 UNL A   1      11.974  49.686   6.596  1.00  0.00    +0.000 H 
ENDROOT
BRANCH   36   35
ATOM     33  C27 UNL A   1      13.612  55.380   8.723  1.00  0.00    +0.000 C 
ATOM     34  C28 UNL A   1      14.249  54.634   7.731  1.00  0.00    +0.000 C 
ATOM     35  C29 UNL A   1      13.616  54.427   6.495  1.00  0.00    +0.000 C 
ATOM    135  H41 UNL A   1      11.953  54.957   5.298  1.00  0.00    +0.000 H 
ATOM    136  H42 UNL A   1      10.970  56.439   6.945  1.00  0.00    +0.000 H 
ATOM    123  H29 UNL A   1      14.057  55.506   9.646  1.00  0.00    +0.000 H 
ATOM    124  H30 UNL A   1      15.184  54.234   7.905  1.00  0.00    +0.000 H 
ATOM     93  C68 UNL A   1      12.405  55.080   6.217  1.00  0.00    +0.000 C 
ATOM     94  C69 UNL A   1      11.813  55.891   7.175  1.00  0.00    +0.000 C 
ATOM     32  C26 UNL A   1      12.369  55.957   8.454  1.00  0.00    +0.000 C 
BRANCH   32   30
ATOM     30  C25 UNL A   1      11.610  56.568   9.563  1.00  0.00    +0.000 C 
ATOM     31  O3  UNL A   1      11.509  57.783   9.637  1.00  0.00    +0.000 O 
BRANCH   30   29
ATOM    122  H28 UNL A   1      10.753  54.871  10.192  1.00  0.00    +0.000 H 
ATOM     29  N3  UNL A   1      11.064  55.745  10.521  1.00  0.00    +0.000 N 
BRANCH   29   28
ATOM    121  H27 UNL A   1       9.872  55.685  12.186  1.00  0.00    +0.000 H 
ATOM     28  C24 UNL A   1      10.875  55.972  11.950  1.00  0.00    +0.000 C 
ATOM    120  H26 UNL A   1      11.060  57.006  12.155  1.00  0.00    +0.000 H 
BRANCH   28   27
ATOM     27  C23 UNL A   1      11.801  55.134  12.826  1.00  0.00    +0.000 C 
ATOM    118  H24 UNL A   1      12.557  55.777  13.226  1.00  0.00    +0.000 H 
ATOM    119  H25 UNL A   1      11.187  54.692  13.584  1.00  0.00    +0.000 H 
BRANCH   27   26
ATOM     26  C22 UNL A   1      12.488  53.987  12.098  1.00  0.00    +0.000 C 
ATOM    116  H22 UNL A   1      12.188  53.072  12.566  1.00  0.00    +0.000 H 
ATOM    117  H23 UNL A   1      12.186  54.065  11.074  1.00  0.00    +0.000 H 
BRANCH   26   25
ATOM     25  C21 UNL A   1      14.015  54.032  12.088  1.00  0.00    +0.000 C 
ATOM    114  H20 UNL A   1      14.320  54.884  11.519  1.00  0.00    +0.000 H 
ATOM    115  H21 UNL A   1      14.323  54.079  13.112  1.00  0.00    +0.000 H 
BRANCH   25   24
ATOM    113  H19 UNL A   1      15.159  53.110  10.584  1.00  0.00    +0.000 H 
ATOM    112  H18 UNL A   1      13.929  52.050  11.327  1.00  0.00    +0.000 H 
ATOM     24  C20 UNL A   1      14.683  52.791  11.488  1.00  0.00    +0.000 C 
BRANCH   24   23
ATOM    111  H17 UNL A   1      15.498  52.292  13.386  1.00  0.00    +0.000 H 
ATOM    110  H16 UNL A   1      16.704  52.672  12.160  1.00  0.00    +0.000 H 
ATOM     23  C19 UNL A   1      15.779  52.175  12.361  1.00  0.00    +0.000 C 
BRANCH   23   22
ATOM    109  H15 UNL A   1      15.518  50.116  12.708  1.00  0.00    +0.000 H 
ATOM     22  N2  UNL A   1      15.937  50.759  12.092  1.00  0.00    +0.000 N 
BRANCH   22    2
ATOM      1  O1  UNL A   1      17.550  50.882  10.466  1.00  0.00    +0.000 O 
ATOM      2  C1  UNL A   1      16.641  50.273  11.021  1.00  0.00    +0.000 C 
BRANCH    2    3
ATOM      3  C2  UNL A   1      16.190  48.907  10.551  1.00  0.00    +0.000 C 
ATOM     95  H1  UNL A   1      15.577  48.467  11.310  1.00  0.00    +0.000 H 
ATOM     96  H2  UNL A   1      17.064  48.319  10.366  1.00  0.00    +0.000 H 
BRANCH    3    4
ATOM     97  H3  UNL A   1      15.468  48.020   8.778  1.00  0.00    +0.000 H 
ATOM     98  H4  UNL A   1      15.820  49.782   8.700  1.00  0.00    +0.000 H 
ATOM      4  C3  UNL A   1      15.393  48.974   9.257  1.00  0.00    +0.000 C 
BRANCH    4    5
ATOM      5  C4  UNL A   1      13.941  49.304   9.389  1.00  0.00    +0.000 C 
ATOM      6  N1  UNL A   1      13.429  50.442   9.818  1.00  0.00    +0.000 N 
ATOM      7  C5  UNL A   1      12.076  50.238   9.764  1.00  0.00    +0.000 C 
ATOM     14  C12 UNL A   1      11.803  48.984   9.249  1.00  0.00    +0.000 C 
ATOM     21  O2  UNL A   1      13.006  48.361   9.025  1.00  0.00    +0.000 O 
BRANCH    7    8
ATOM     99  H5  UNL A   1      10.577  50.412  11.982  1.00  0.00    +0.000 H 
ATOM    100  H6  UNL A   1       8.593  51.770  12.300  1.00  0.00    +0.000 H 
ATOM    101  H7  UNL A   1       7.955  53.393  10.614  1.00  0.00    +0.000 H 
ATOM    102  H8  UNL A   1       9.345  53.715   8.652  1.00  0.00    +0.000 H 
ATOM    103  H9  UNL A   1      11.319  52.343   8.317  1.00  0.00    +0.000 H 
ATOM      8  C6  UNL A   1      11.065  51.222  10.089  1.00  0.00    +0.000 C 
ATOM      9  C7  UNL A   1      10.298  51.094  11.259  1.00  0.00    +0.000 C 
ATOM     10  C8  UNL A   1       9.165  51.883  11.449  1.00  0.00    +0.000 C 
ATOM     11  C9  UNL A   1       8.807  52.824  10.486  1.00  0.00    +0.000 C 
ATOM     12  C10 UNL A   1       9.598  52.997   9.349  1.00  0.00    +0.000 C 
ATOM     13  C11 UNL A   1      10.730  52.204   9.153  1.00  0.00    +0.000 C 
ENDBRANCH    7    8
BRANCH   14   15
ATOM    104  H10 UNL A   1       9.909  49.716   7.467  1.00  0.00    +0.000 H 
ATOM    105  H11 UNL A   1       7.975  48.432   6.759  1.00  0.00    +0.000 H 
ATOM    106  H12 UNL A   1       7.526  46.257   7.732  1.00  0.00    +0.000 H 
ATOM    107  H13 UNL A   1       8.972  45.386   9.474  1.00  0.00    +0.000 H 
ATOM    108  H14 UNL A   1      10.888  46.673  10.202  1.00  0.00    +0.000 H 
ATOM     15  C13 UNL A   1      10.579  48.291   8.874  1.00  0.00    +0.000 C 
ATOM     16  C14 UNL A   1       9.720  48.795   7.892  1.00  0.00    +0.000 C 
ATOM     17  C15 UNL A   1       8.605  48.054   7.484  1.00  0.00    +0.000 C 
ATOM     18  C16 UNL A   1       8.339  46.806   8.051  1.00  0.00    +0.000 C 
ATOM     19  C17 UNL A   1       9.172  46.304   9.044  1.00  0.00    +0.000 C 
ATOM     20  C18 UNL A   1      10.278  47.045   9.456  1.00  0.00    +0.000 C 
ENDBRANCH   14   15
ENDBRANCH    4    5
ENDBRANCH    3    4
ENDBRANCH    2    3
ENDBRANCH   22    2
ENDBRANCH   23   22
ENDBRANCH   24   23
ENDBRANCH   25   24
ENDBRANCH   26   25
ENDBRANCH   27   26
ENDBRANCH   28   27
ENDBRANCH   29   28
ENDBRANCH   30   29
ENDBRANCH   32   30
ENDBRANCH   36   35
BRANCH   40   41
ATOM     41  C34 UNL A   1      17.676  55.412   0.972  1.00  0.00    +0.000 C 
ATOM     42  C35 UNL A   1      17.091  56.241   0.001  1.00  0.00    +0.000 C 
ATOM     43  F1  UNL A   1      15.873  55.955  -0.484  1.00  0.00    +0.000 F 
ATOM     44  C36 UNL A   1      17.778  57.337  -0.514  1.00  0.00    +0.000 C 
ATOM     45  F2  UNL A   1      17.223  58.077  -1.486  1.00  0.00    +0.000 F 
ATOM     46  C37 UNL A   1      19.044  57.649  -0.044  1.00  0.00    +0.000 C 
ATOM     47  F3  UNL A   1      19.705  58.702  -0.544  1.00  0.00    +0.000 F 
ATOM     48  C38 UNL A   1      19.629  56.863   0.937  1.00  0.00    +0.000 C 
ATOM     49  F4  UNL A   1      20.849  57.170   1.400  1.00  0.00    +0.000 F 
ATOM     50  C39 UNL A   1      18.958  55.748   1.434  1.00  0.00    +0.000 C 
ATOM     51  F5  UNL A   1      19.562  54.992   2.363  1.00  0.00    +0.000 F 
ENDBRANCH   40   41
BRANCH   57   58
ATOM     65  C49 UNL A   1      16.184  47.350  -2.897  1.00  0.00    +0.000 C 
ATOM     66  F9  UNL A   1      15.378  47.134  -3.945  1.00  0.00    +0.000 F 
ATOM     67  C50 UNL A   1      15.819  48.268  -1.918  1.00  0.00    +0.000 C 
ATOM     68  F10 UNL A   1      14.661  48.932  -2.052  1.00  0.00    +0.000 F 
ATOM     58  C45 UNL A   1      16.638  48.494  -0.802  1.00  0.00    +0.000 C 
ATOM     59  C46 UNL A   1      17.837  47.774  -0.705  1.00  0.00    +0.000 C 
ATOM     60  F6  UNL A   1      18.660  47.969   0.337  1.00  0.00    +0.000 F 
ATOM     61  C47 UNL A   1      18.210  46.873  -1.698  1.00  0.00    +0.000 C 
ATOM     62  F7  UNL A   1      19.378  46.222  -1.605  1.00  0.00    +0.000 F 
ATOM     63  C48 UNL A   1      17.380  46.656  -2.789  1.00  0.00    +0.000 C 
ATOM     64  F8  UNL A   1      17.738  45.782  -3.740  1.00  0.00    +0.000 F 
ENDBRANCH   57   58
BRANCH   72   73
ATOM     73  C54 UNL A   1      12.429  47.769   4.707  1.00  0.00    +0.000 C 
ATOM     74  C55 UNL A   1      12.841  47.013   5.812  1.00  0.00    +0.000 C 
ATOM     75  F11 UNL A   1      14.031  47.254   6.382  1.00  0.00    +0.000 F 
ATOM     76  C56 UNL A   1      12.044  45.990   6.323  1.00  0.00    +0.000 C 
ATOM     77  F12 UNL A   1      12.473  45.265   7.363  1.00  0.00    +0.000 F 
ATOM     78  C57 UNL A   1      10.809  45.720   5.752  1.00  0.00    +0.000 C 
ATOM     79  F13 UNL A   1      10.036  44.746   6.250  1.00  0.00    +0.000 F 
ATOM     80  C58 UNL A   1      10.377  46.460   4.660  1.00  0.00    +0.000 C 
ATOM     81  F14 UNL A   1       9.178  46.213   4.116  1.00  0.00    +0.000 F 
ATOM     82  C59 UNL A   1      11.184  47.468   4.136  1.00  0.00    +0.000 C 
ATOM     83  F15 UNL A   1      10.741  48.169   3.082  1.00  0.00    +0.000 F 
ENDBRANCH   72   73
TORSDOF 19
ENDMDL
MODEL 10
REMARK VINA RESULT:     -11.5     25.739     33.689
ROOT
ATOM    129  H35 UNL A   1      22.335  19.874   4.924  1.00  0.00    +0.000 H 
ATOM    130  H36 UNL A   1      20.152  16.400   5.595  1.00  0.00    +0.000 H 
ATOM    131  H37 UNL A   1      15.351  17.828   5.953  1.00  0.00    +0.000 H 
ATOM    132  H38 UNL A   1      14.783  15.350   6.258  1.00  0.00    +0.000 H 
ATOM    133  H39 UNL A   1      24.387  12.837   4.715  1.00  0.00    +0.000 H 
ATOM    134  H40 UNL A   1      25.045  15.306   4.891  1.00  0.00    +0.000 H 
ATOM     36  C30 UNL A   1      22.814  17.064   5.043  1.00  0.00    +0.000 C 
ATOM     37  C31 UNL A   1      22.800  15.566   5.092  1.00  0.00    +0.000 C 
ATOM     38  N4  UNL A   1      21.784  14.749   5.210  1.00  0.00    +0.000 N 
ATOM     39  C32 UNL A   1      22.319  13.472   5.127  1.00  0.00    +0.000 C 
ATOM     40  C33 UNL A   1      21.683  12.283   5.253  1.00  0.00    +0.000 C 
ATOM     52  C40 UNL A   1      20.274  12.148   5.512  1.00  0.00    +0.000 C 
ATOM     53  C41 UNL A   1      19.541  10.995   5.731  1.00  0.00    +0.000 C 
ATOM     54  C42 UNL A   1      18.199  11.358   5.902  1.00  0.00    +0.000 C 
ATOM     55  C43 UNL A   1      18.103  12.739   5.827  1.00  0.00    +0.000 C 
ATOM     56  N5  UNL A   1      19.382  13.209   5.585  1.00  0.00    +0.000 N 
ATOM     57  C44 UNL A   1      16.931  13.565   5.965  1.00  0.00    +0.000 C 
ATOM     69  C51 UNL A   1      16.915  14.919   5.911  1.00  0.00    +0.000 C 
ATOM     70  N6  UNL A   1      17.971  15.796   5.707  1.00  0.00    +0.000 N 
ATOM     71  C52 UNL A   1      17.448  16.998   5.722  1.00  0.00    +0.000 C 
ATOM     72  C53 UNL A   1      18.130  18.327   5.556  1.00  0.00    +0.000 C 
ATOM     84  C60 UNL A   1      19.470  18.362   5.441  1.00  0.00    +0.000 C 
ATOM     85  C61 UNL A   1      20.270  19.569   5.262  1.00  0.00    +0.000 C 
ATOM     86  C62 UNL A   1      21.555  19.220   5.096  1.00  0.00    +0.000 C 
ATOM     87  C63 UNL A   1      21.673  17.764   5.197  1.00  0.00    +0.000 C 
ATOM     88  N7  UNL A   1      20.390  17.342   5.439  1.00  0.00    +0.000 N 
ATOM     89  C64 UNL A   1      15.993  17.021   5.926  1.00  0.00    +0.000 C 
ATOM     90  C65 UNL A   1      15.723  15.729   6.065  1.00  0.00    +0.000 C 
ATOM     91  C66 UNL A   1      23.740  13.621   4.895  1.00  0.00    +0.000 C 
ATOM     92  C67 UNL A   1      24.100  14.894   4.944  1.00  0.00    +0.000 C 
ATOM    125  H31 UNL A   1      19.918  10.036   5.763  1.00  0.00    +0.000 H 
ATOM    126  H32 UNL A   1      17.415  10.706   6.059  1.00  0.00    +0.000 H 
ATOM    127  H33 UNL A   1      19.624  14.159   5.479  1.00  0.00    +0.000 H 
ATOM    128  H34 UNL A   1      19.906  20.535   5.262  1.00  0.00    +0.000 H 
ENDROOT
BRANCH   36   35
ATOM     33  C27 UNL A   1      25.749  18.414   3.066  1.00  0.00    +0.000 C 
ATOM     34  C28 UNL A   1      24.488  17.889   3.351  1.00  0.00    +0.000 C 
ATOM     35  C29 UNL A   1      24.060  17.779   4.683  1.00  0.00    +0.000 C 
ATOM    135  H41 UNL A   1      24.522  18.266   6.690  1.00  0.00    +0.000 H 
ATOM    136  H42 UNL A   1      26.607  19.384   6.162  1.00  0.00    +0.000 H 
ATOM    123  H29 UNL A   1      26.085  18.465   2.091  1.00  0.00    +0.000 H 
ATOM    124  H30 UNL A   1      23.871  17.583   2.583  1.00  0.00    +0.000 H 
ATOM     93  C68 UNL A   1      24.849  18.316   5.712  1.00  0.00    +0.000 C 
ATOM     94  C69 UNL A   1      26.067  18.913   5.420  1.00  0.00    +0.000 C 
ATOM     32  C26 UNL A   1      26.553  18.871   4.112  1.00  0.00    +0.000 C 
BRANCH   32   30
ATOM     30  C25 UNL A   1      27.957  19.232   3.831  1.00  0.00    +0.000 C 
ATOM     31  O3  UNL A   1      28.210  20.151   3.067  1.00  0.00    +0.000 O 
BRANCH   30   29
ATOM    122  H28 UNL A   1      29.508  18.969   5.070  1.00  0.00    +0.000 H 
ATOM     29  N3  UNL A   1      28.959  18.487   4.410  1.00  0.00    +0.000 N 
BRANCH   29   28
ATOM    121  H27 UNL A   1      30.305  17.091   3.753  1.00  0.00    +0.000 H 
ATOM     28  C24 UNL A   1      29.331  17.094   4.194  1.00  0.00    +0.000 C 
ATOM    120  H26 UNL A   1      28.597  16.643   3.558  1.00  0.00    +0.000 H 
BRANCH   28   27
ATOM     27  C23 UNL A   1      29.417  16.280   5.482  1.00  0.00    +0.000 C 
ATOM    118  H24 UNL A   1      30.011  15.411   5.291  1.00  0.00    +0.000 H 
ATOM    119  H25 UNL A   1      29.848  16.924   6.221  1.00  0.00    +0.000 H 
BRANCH   27   26
ATOM     26  C22 UNL A   1      28.071  15.827   6.031  1.00  0.00    +0.000 C 
ATOM    116  H22 UNL A   1      27.317  16.093   5.319  1.00  0.00    +0.000 H 
ATOM    117  H23 UNL A   1      28.159  14.772   6.191  1.00  0.00    +0.000 H 
BRANCH   26   25
ATOM     25  C21 UNL A   1      27.674  16.423   7.380  1.00  0.00    +0.000 C 
ATOM    114  H20 UNL A   1      26.690  16.830   7.289  1.00  0.00    +0.000 H 
ATOM    115  H21 UNL A   1      27.735  15.626   8.093  1.00  0.00    +0.000 H 
BRANCH   25   24
ATOM    113  H19 UNL A   1      28.415  18.387   7.273  1.00  0.00    +0.000 H 
ATOM    112  H18 UNL A   1      29.613  17.177   7.812  1.00  0.00    +0.000 H 
ATOM     24  C20 UNL A   1      28.605  17.529   7.884  1.00  0.00    +0.000 C 
BRANCH   24   23
ATOM    111  H17 UNL A   1      29.149  17.585   9.937  1.00  0.00    +0.000 H 
ATOM    110  H16 UNL A   1      27.411  17.571   9.652  1.00  0.00    +0.000 H 
ATOM     23  C19 UNL A   1      28.353  17.962   9.331  1.00  0.00    +0.000 C 
BRANCH   23   22
ATOM    109  H15 UNL A   1      28.647  19.947   8.696  1.00  0.00    +0.000 H 
ATOM     22  N2  UNL A   1      28.331  19.406   9.455  1.00  0.00    +0.000 N 
BRANCH   22    2
ATOM      1  O1  UNL A   1      28.312  19.829  11.709  1.00  0.00    +0.000 O 
ATOM      2  C1  UNL A   1      27.891  20.055  10.579  1.00  0.00    +0.000 C 
BRANCH    2    3
ATOM      3  C2  UNL A   1      26.808  21.081  10.319  1.00  0.00    +0.000 C 
ATOM     95  H1  UNL A   1      27.238  21.911   9.799  1.00  0.00    +0.000 H 
ATOM     96  H2  UNL A   1      26.405  21.379  11.265  1.00  0.00    +0.000 H 
BRANCH    3    4
ATOM     97  H3  UNL A   1      26.068  20.235   8.534  1.00  0.00    +0.000 H 
ATOM     98  H4  UNL A   1      24.935  21.297   9.441  1.00  0.00    +0.000 H 
ATOM      4  C3  UNL A   1      25.668  20.518   9.485  1.00  0.00    +0.000 C 
BRANCH    4    5
ATOM      5  C4  UNL A   1      24.956  19.332  10.051  1.00  0.00    +0.000 C 
ATOM      6  N1  UNL A   1      24.560  19.174  11.300  1.00  0.00    +0.000 N 
ATOM      7  C5  UNL A   1      23.980  17.933  11.310  1.00  0.00    +0.000 C 
ATOM     14  C12 UNL A   1      23.996  17.389  10.039  1.00  0.00    +0.000 C 
ATOM     21  O2  UNL A   1      24.648  18.278   9.219  1.00  0.00    +0.000 O 
BRANCH    7    8
ATOM     99  H5  UNL A   1      22.476  19.093  13.205  1.00  0.00    +0.000 H 
ATOM    100  H6  UNL A   1      21.814  18.136  15.333  1.00  0.00    +0.000 H 
ATOM    101  H7  UNL A   1      22.257  15.796  15.795  1.00  0.00    +0.000 H 
ATOM    102  H8  UNL A   1      23.284  14.397  14.101  1.00  0.00    +0.000 H 
ATOM    103  H9  UNL A   1      23.970  15.355  11.979  1.00  0.00    +0.000 H 
ATOM      8  C6  UNL A   1      23.340  17.314  12.452  1.00  0.00    +0.000 C 
ATOM      9  C7  UNL A   1      22.675  18.101  13.407  1.00  0.00    +0.000 C 
ATOM     10  C8  UNL A   1      22.283  17.549  14.625  1.00  0.00    +0.000 C 
ATOM     11  C9  UNL A   1      22.526  16.202  14.884  1.00  0.00    +0.000 C 
ATOM     12  C10 UNL A   1      23.132  15.401  13.916  1.00  0.00    +0.000 C 
ATOM     13  C11 UNL A   1      23.532  15.952  12.697  1.00  0.00    +0.000 C 
ENDBRANCH    7    8
BRANCH   14   15
ATOM    104  H10 UNL A   1      25.214  15.037   9.506  1.00  0.00    +0.000 H 
ATOM    105  H11 UNL A   1      24.187  12.998   8.683  1.00  0.00    +0.000 H 
ATOM    106  H12 UNL A   1      21.819  12.941   8.167  1.00  0.00    +0.000 H 
ATOM    107  H13 UNL A   1      20.478  14.948   8.405  1.00  0.00    +0.000 H 
ATOM    108  H14 UNL A   1      21.501  16.991   9.202  1.00  0.00    +0.000 H 
ATOM     15  C13 UNL A   1      23.439  16.180   9.451  1.00  0.00    +0.000 C 
ATOM     16  C14 UNL A   1      24.207  15.023   9.281  1.00  0.00    +0.000 C 
ATOM     17  C15 UNL A   1      23.614  13.847   8.806  1.00  0.00    +0.000 C 
ATOM     18  C16 UNL A   1      22.253  13.816   8.500  1.00  0.00    +0.000 C 
ATOM     19  C17 UNL A   1      21.483  14.964   8.642  1.00  0.00    +0.000 C 
ATOM     20  C18 UNL A   1      22.074  16.137   9.107  1.00  0.00    +0.000 C 
ENDBRANCH   14   15
ENDBRANCH    4    5
ENDBRANCH    3    4
ENDBRANCH    2    3
ENDBRANCH   22    2
ENDBRANCH   23   22
ENDBRANCH   24   23
ENDBRANCH   25   24
ENDBRANCH   26   25
ENDBRANCH   27   26
ENDBRANCH   28   27
ENDBRANCH   29   28
ENDBRANCH   30   29
ENDBRANCH   32   30
ENDBRANCH   36   35
BRANCH   40   41
ATOM     41  C34 UNL A   1      22.515  11.042   5.117  1.00  0.00    +0.000 C 
ATOM     42  C35 UNL A   1      22.786  10.475   3.861  1.00  0.00    +0.000 C 
ATOM     43  F1  UNL A   1      22.290  11.033   2.747  1.00  0.00    +0.000 F 
ATOM     44  C36 UNL A   1      23.525   9.300   3.751  1.00  0.00    +0.000 C 
ATOM     45  F2  UNL A   1      23.718   8.743   2.546  1.00  0.00    +0.000 F 
ATOM     46  C37 UNL A   1      24.039   8.692   4.885  1.00  0.00    +0.000 C 
ATOM     47  F3  UNL A   1      24.747   7.558   4.776  1.00  0.00    +0.000 F 
ATOM     48  C38 UNL A   1      23.810   9.251   6.132  1.00  0.00    +0.000 C 
ATOM     49  F4  UNL A   1      24.315   8.669   7.229  1.00  0.00    +0.000 F 
ATOM     50  C39 UNL A   1      23.046  10.410   6.251  1.00  0.00    +0.000 C 
ATOM     51  F5  UNL A   1      22.820  10.911   7.474  1.00  0.00    +0.000 F 
ENDBRANCH   40   41
BRANCH   57   58
ATOM     65  C49 UNL A   1      13.632  11.782   5.335  1.00  0.00    +0.000 C 
ATOM     66  F9  UNL A   1      12.926  11.327   4.292  1.00  0.00    +0.000 F 
ATOM     67  C50 UNL A   1      14.874  12.374   5.128  1.00  0.00    +0.000 C 
ATOM     68  F10 UNL A   1      15.345  12.468   3.876  1.00  0.00    +0.000 F 
ATOM     58  C45 UNL A   1      15.620  12.878   6.204  1.00  0.00    +0.000 C 
ATOM     59  C46 UNL A   1      15.083  12.759   7.494  1.00  0.00    +0.000 C 
ATOM     60  F6  UNL A   1      15.769  13.211   8.555  1.00  0.00    +0.000 F 
ATOM     61  C47 UNL A   1      13.851  12.146   7.700  1.00  0.00    +0.000 C 
ATOM     62  F7  UNL A   1      13.372  12.010   8.944  1.00  0.00    +0.000 F 
ATOM     63  C48 UNL A   1      13.124  11.664   6.621  1.00  0.00    +0.000 C 
ATOM     64  F8  UNL A   1      11.934  11.081   6.820  1.00  0.00    +0.000 F 
ENDBRANCH   57   58
BRANCH   72   73
ATOM     73  C54 UNL A   1      17.359  19.595   5.542  1.00  0.00    +0.000 C 
ATOM     74  C55 UNL A   1      17.098  20.287   6.731  1.00  0.00    +0.000 C 
ATOM     75  F11 UNL A   1      17.502  19.777   7.904  1.00  0.00    +0.000 F 
ATOM     76  C56 UNL A   1      16.402  21.494   6.724  1.00  0.00    +0.000 C 
ATOM     77  F12 UNL A   1      16.143  22.123   7.878  1.00  0.00    +0.000 F 
ATOM     78  C57 UNL A   1      15.974  22.043   5.525  1.00  0.00    +0.000 C 
ATOM     79  F13 UNL A   1      15.315  23.210   5.516  1.00  0.00    +0.000 F 
ATOM     80  C58 UNL A   1      16.226  21.378   4.334  1.00  0.00    +0.000 C 
ATOM     81  F14 UNL A   1      15.827  21.913   3.171  1.00  0.00    +0.000 F 
ATOM     82  C59 UNL A   1      16.903  20.160   4.342  1.00  0.00    +0.000 C 
ATOM     83  F15 UNL A   1      17.135  19.540   3.177  1.00  0.00    +0.000 F 
ENDBRANCH   72   73
TORSDOF 19
ENDMDL
