MODEL 1
REMARK VINA RESULT:      -8.1      0.000      0.000
ROOT
ATOM     24  C20 UNL A   1      13.258  50.363   3.328  1.00  0.00    +0.000 C 
ATOM     25  C21 UNL A   1      14.141  49.867   2.218  1.00  0.00    +0.000 C 
ATOM     26  N3  UNL A   1      15.052  50.511   1.533  1.00  0.00    +0.000 N 
ATOM     27  C22 UNL A   1      15.603  49.577   0.666  1.00  0.00    +0.000 C 
ATOM     28  C23 UNL A   1      16.548  49.762  -0.286  1.00  0.00    +0.000 C 
ATOM     40  C30 UNL A   1      17.166  51.028  -0.578  1.00  0.00    +0.000 C 
ATOM     41  C31 UNL A   1      18.081  51.336  -1.569  1.00  0.00    +0.000 C 
ATOM     42  C32 UNL A   1      18.431  52.685  -1.439  1.00  0.00    +0.000 C 
ATOM     43  C33 UNL A   1      17.703  53.228  -0.392  1.00  0.00    +0.000 C 
ATOM     44  N4  UNL A   1      16.934  52.200   0.129  1.00  0.00    +0.000 N 
ATOM     45  C34 UNL A   1      17.709  54.582   0.098  1.00  0.00    +0.000 C 
ATOM     57  C41 UNL A   1      16.949  55.044   1.121  1.00  0.00    +0.000 C 
ATOM     58  N5  UNL A   1      16.028  54.360   1.901  1.00  0.00    +0.000 N 
ATOM     59  C42 UNL A   1      15.564  55.233   2.761  1.00  0.00    +0.000 C 
ATOM     60  C43 UNL A   1      14.524  55.050   3.831  1.00  0.00    +0.000 C 
ATOM     72  C50 UNL A   1      13.928  53.851   3.973  1.00  0.00    +0.000 C 
ATOM     73  C51 UNL A   1      12.900  53.525   4.957  1.00  0.00    +0.000 C 
ATOM     74  C52 UNL A   1      12.568  52.230   4.831  1.00  0.00    +0.000 C 
ATOM     75  C53 UNL A   1      13.338  51.644   3.734  1.00  0.00    +0.000 C 
ATOM     76  N6  UNL A   1      14.113  52.680   3.280  1.00  0.00    +0.000 N 
ATOM     77  C54 UNL A   1      16.160  56.570   2.640  1.00  0.00    +0.000 C 
ATOM     78  C55 UNL A   1      16.970  56.410   1.603  1.00  0.00    +0.000 C 
ATOM     79  C56 UNL A   1      14.956  48.311   0.941  1.00  0.00    +0.000 C 
ATOM     80  C57 UNL A   1      13.999  48.451   1.846  1.00  0.00    +0.000 C 
ATOM    118  H25 UNL A   1      18.443  50.684  -2.282  1.00  0.00    +0.000 H 
ATOM    119  H26 UNL A   1      19.115  53.190  -2.023  1.00  0.00    +0.000 H 
ATOM    120  H27 UNL A   1      16.313  52.288   0.888  1.00  0.00    +0.000 H 
ATOM    121  H28 UNL A   1      12.495  54.184   5.640  1.00  0.00    +0.000 H 
ATOM    122  H29 UNL A   1      11.880  51.729   5.415  1.00  0.00    +0.000 H 
ATOM    123  H30 UNL A   1      14.744  52.592   2.528  1.00  0.00    +0.000 H 
ATOM    124  H31 UNL A   1      15.992  57.413   3.212  1.00  0.00    +0.000 H 
ATOM    125  H32 UNL A   1      17.543  57.164   1.192  1.00  0.00    +0.000 H 
ATOM    126  H33 UNL A   1      15.208  47.417   0.492  1.00  0.00    +0.000 H 
ATOM    127  H34 UNL A   1      13.329  47.750   2.199  1.00  0.00    +0.000 H 
ENDROOT
BRANCH   24   23
ATOM    129  H36 UNL A   1      12.396  47.104   6.456  1.00  0.00    +0.000 H 
ATOM     81  C58 UNL A   1      12.846  48.631   5.074  1.00  0.00    +0.000 C 
ATOM     82  C59 UNL A   1      12.010  47.737   5.737  1.00  0.00    +0.000 C 
ATOM     20  C16 UNL A   1      10.648  47.696   5.427  1.00  0.00    +0.000 C 
ATOM     21  C17 UNL A   1      10.143  48.468   4.377  1.00  0.00    +0.000 C 
ATOM    116  H23 UNL A   1       9.145  48.409   4.124  1.00  0.00    +0.000 H 
ATOM     22  C18 UNL A   1      10.996  49.320   3.671  1.00  0.00    +0.000 C 
ATOM    117  H24 UNL A   1      10.629  49.873   2.880  1.00  0.00    +0.000 H 
ATOM     23  C19 UNL A   1      12.348  49.427   4.032  1.00  0.00    +0.000 C 
ATOM    128  H35 UNL A   1      13.837  48.710   5.352  1.00  0.00    +0.000 H 
BRANCH   20   18
ATOM     18  C15 UNL A   1       9.722  46.814   6.174  1.00  0.00    +0.000 C 
ATOM     19  O2  UNL A   1       9.174  45.883   5.602  1.00  0.00    +0.000 O 
BRANCH   18   17
ATOM     17  N2  UNL A   1       9.482  47.045   7.507  1.00  0.00    +0.000 N 
ATOM    115  H22 UNL A   1       8.929  47.834   7.708  1.00  0.00    +0.000 H 
BRANCH   17   16
ATOM    113  H20 UNL A   1      10.008  46.939   9.502  1.00  0.00    +0.000 H 
ATOM    114  H21 UNL A   1       9.219  45.505   8.843  1.00  0.00    +0.000 H 
ATOM     16  C14 UNL A   1       9.931  46.282   8.662  1.00  0.00    +0.000 C 
BRANCH   16   15
ATOM    111  H18 UNL A   1      11.153  44.570   8.399  1.00  0.00    +0.000 H 
ATOM     15  C13 UNL A   1      11.290  45.631   8.419  1.00  0.00    +0.000 C 
ATOM    112  H19 UNL A   1      11.654  46.025   7.493  1.00  0.00    +0.000 H 
BRANCH   15   14
ATOM    110  H17 UNL A   1      12.800  45.022   9.741  1.00  0.00    +0.000 H 
ATOM    109  H16 UNL A   1      11.861  46.442  10.295  1.00  0.00    +0.000 H 
ATOM     14  C12 UNL A   1      12.349  45.955   9.477  1.00  0.00    +0.000 C 
BRANCH   14   13
ATOM    107  H14 UNL A   1      14.273  46.236   8.618  1.00  0.00    +0.000 H 
ATOM    108  H15 UNL A   1      13.068  47.513   8.267  1.00  0.00    +0.000 H 
ATOM     13  C11 UNL A   1      13.492  46.861   9.001  1.00  0.00    +0.000 C 
BRANCH   13   12
ATOM    105  H12 UNL A   1      15.010  47.328  10.423  1.00  0.00    +0.000 H 
ATOM    106  H13 UNL A   1      14.250  48.729   9.630  1.00  0.00    +0.000 H 
ATOM     12  C10 UNL A   1      14.097  47.770  10.080  1.00  0.00    +0.000 C 
BRANCH   12   11
ATOM     11  C9  UNL A   1      13.184  47.986  11.288  1.00  0.00    +0.000 C 
ATOM    103  H10 UNL A   1      12.548  47.133  11.406  1.00  0.00    +0.000 H 
ATOM    104  H11 UNL A   1      13.790  48.118  12.160  1.00  0.00    +0.000 H 
BRANCH   11   10
ATOM     10  N1  UNL A   1      12.366  49.170  11.102  1.00  0.00    +0.000 N 
ATOM    102  H9  UNL A   1      12.811  50.014  11.345  1.00  0.00    +0.000 H 
BRANCH   10    8
ATOM      9  O1  UNL A   1      10.186  48.686  11.195  1.00  0.00    +0.000 O 
ATOM      8  C8  UNL A   1      11.094  49.314  10.651  1.00  0.00    +0.000 C 
BRANCH    8    7
ATOM    101  H8  UNL A   1       9.906  50.694   9.496  1.00  0.00    +0.000 H 
ATOM      7  C7  UNL A   1      10.779  50.143   9.467  1.00  0.00    +0.000 C 
BRANCH    7    6
ATOM    100  H7  UNL A   1      11.255  49.693   7.531  1.00  0.00    +0.000 H 
ATOM      6  C6  UNL A   1      11.530  50.241   8.361  1.00  0.00    +0.000 C 
BRANCH    6    5
ATOM    130  H37 UNL A   1      14.000  49.511   7.685  1.00  0.00    +0.000 H 
ATOM      3  C3  UNL A   1      13.841  53.246   8.561  1.00  0.00    +0.000 C 
ATOM      4  C4  UNL A   1      12.685  52.451   8.603  1.00  0.00    +0.000 C 
ATOM      5  C5  UNL A   1      12.727  51.091   8.271  1.00  0.00    +0.000 C 
ATOM     99  H6  UNL A   1      11.787  52.878   8.883  1.00  0.00    +0.000 H 
ATOM    136  H43 UNL A   1      15.906  53.238   8.119  1.00  0.00    +0.000 H 
ATOM     83  C60 UNL A   1      13.954  50.515   7.921  1.00  0.00    +0.000 C 
ATOM     84  C61 UNL A   1      15.121  51.291   7.889  1.00  0.00    +0.000 C 
ATOM     93  C69 UNL A   1      15.055  52.658   8.182  1.00  0.00    +0.000 C 
BRANCH    3    2
ATOM     97  H4  UNL A   1      14.021  54.789   9.988  1.00  0.00    +0.000 H 
ATOM      2  C2  UNL A   1      13.781  54.703   8.949  1.00  0.00    +0.000 C 
ATOM     98  H5  UNL A   1      14.482  55.228   8.335  1.00  0.00    +0.000 H 
BRANCH    2    1
ATOM      1  C1  UNL A   1      12.413  55.321   8.713  1.00  0.00    +0.000 C 
ATOM     94  H1  UNL A   1      12.523  56.227   8.152  1.00  0.00    +0.000 H 
ATOM     95  H2  UNL A   1      11.952  55.538   9.654  1.00  0.00    +0.000 H 
ATOM     96  H3  UNL A   1      11.800  54.636   8.166  1.00  0.00    +0.000 H 
ENDBRANCH    2    1
ENDBRANCH    3    2
BRANCH   84   85
ATOM     85  C62 UNL A   1      16.404  50.630   7.517  1.00  0.00    +0.000 C 
ATOM     86  O3  UNL A   1      17.427  50.884   8.146  1.00  0.00    +0.000 O 
BRANCH   85   87
ATOM    131  H38 UNL A   1      15.710  48.064   7.571  1.00  0.00    +0.000 H 
ATOM    132  H39 UNL A   1      15.738  46.446   5.760  1.00  0.00    +0.000 H 
ATOM    133  H40 UNL A   1      16.535  47.095   3.563  1.00  0.00    +0.000 H 
ATOM    134  H41 UNL A   1      17.343  49.350   3.178  1.00  0.00    +0.000 H 
ATOM    135  H42 UNL A   1      17.316  50.975   4.985  1.00  0.00    +0.000 H 
ATOM     87  C63 UNL A   1      16.470  49.653   6.403  1.00  0.00    +0.000 C 
ATOM     88  C64 UNL A   1      16.043  48.342   6.634  1.00  0.00    +0.000 C 
ATOM     89  C65 UNL A   1      16.066  47.410   5.595  1.00  0.00    +0.000 C 
ATOM     90  C66 UNL A   1      16.530  47.782   4.333  1.00  0.00    +0.000 C 
ATOM     91  C67 UNL A   1      16.989  49.081   4.110  1.00  0.00    +0.000 C 
ATOM     92  C68 UNL A   1      16.967  50.018   5.146  1.00  0.00    +0.000 C 
ENDBRANCH   85   87
ENDBRANCH   84   85
ENDBRANCH    6    5
ENDBRANCH    7    6
ENDBRANCH    8    7
ENDBRANCH   10    8
ENDBRANCH   11   10
ENDBRANCH   12   11
ENDBRANCH   13   12
ENDBRANCH   14   13
ENDBRANCH   15   14
ENDBRANCH   16   15
ENDBRANCH   17   16
ENDBRANCH   18   17
ENDBRANCH   20   18
ENDBRANCH   24   23
BRANCH   28   29
ATOM     33  F2  UNL A   1      15.955  46.660  -4.034  1.00  0.00    +0.000 F 
ATOM     34  C27 UNL A   1      17.784  46.326  -2.579  1.00  0.00    +0.000 C 
ATOM     35  F3  UNL A   1      18.166  45.250  -3.282  1.00  0.00    +0.000 F 
ATOM     36  C28 UNL A   1      18.503  46.714  -1.458  1.00  0.00    +0.000 C 
ATOM     37  F4  UNL A   1      19.591  46.023  -1.089  1.00  0.00    +0.000 F 
ATOM     38  C29 UNL A   1      18.093  47.815  -0.711  1.00  0.00    +0.000 C 
ATOM     39  F5  UNL A   1      18.799  48.154   0.378  1.00  0.00    +0.000 F 
ATOM     29  C24 UNL A   1      16.967  48.563  -1.087  1.00  0.00    +0.000 C 
ATOM     30  C25 UNL A   1      16.271  48.168  -2.238  1.00  0.00    +0.000 C 
ATOM     31  F1  UNL A   1      15.180  48.842  -2.634  1.00  0.00    +0.000 F 
ATOM     32  C26 UNL A   1      16.666  47.048  -2.966  1.00  0.00    +0.000 C 
ENDBRANCH   28   29
BRANCH   45   46
ATOM     46  C35 UNL A   1      18.608  55.569  -0.586  1.00  0.00    +0.000 C 
ATOM     47  C36 UNL A   1      18.267  56.136  -1.823  1.00  0.00    +0.000 C 
ATOM     48  F6  UNL A   1      17.142  55.761  -2.451  1.00  0.00    +0.000 F 
ATOM     49  C37 UNL A   1      19.104  57.063  -2.437  1.00  0.00    +0.000 C 
ATOM     50  F7  UNL A   1      18.781  57.561  -3.640  1.00  0.00    +0.000 F 
ATOM     51  C38 UNL A   1      20.277  57.463  -1.816  1.00  0.00    +0.000 C 
ATOM     52  F8  UNL A   1      21.078  58.361  -2.405  1.00  0.00    +0.000 F 
ATOM     53  C39 UNL A   1      20.624  56.928  -0.584  1.00  0.00    +0.000 C 
ATOM     54  F9  UNL A   1      21.752  57.322   0.024  1.00  0.00    +0.000 F 
ATOM     55  C40 UNL A   1      19.803  55.980   0.021  1.00  0.00    +0.000 C 
ATOM     56  F10 UNL A   1      20.170  55.472   1.207  1.00  0.00    +0.000 F 
ENDBRANCH   45   46
BRANCH   60   61
ATOM     65  F12 UNL A   1      15.166  57.786   7.813  1.00  0.00    +0.000 F 
ATOM     66  C47 UNL A   1      13.388  58.334   6.359  1.00  0.00    +0.000 C 
ATOM     67  F13 UNL A   1      13.036  59.356   7.149  1.00  0.00    +0.000 F 
ATOM     68  C48 UNL A   1      12.661  58.061   5.209  1.00  0.00    +0.000 C 
ATOM     69  F14 UNL A   1      11.617  58.833   4.878  1.00  0.00    +0.000 F 
ATOM     70  C49 UNL A   1      13.016  56.987   4.396  1.00  0.00    +0.000 C 
ATOM     71  F15 UNL A   1      12.293  56.741   3.294  1.00  0.00    +0.000 F 
ATOM     61  C44 UNL A   1      14.120  56.179   4.705  1.00  0.00    +0.000 C 
ATOM     62  C45 UNL A   1      14.845  56.481   5.866  1.00  0.00    +0.000 C 
ATOM     63  F11 UNL A   1      15.897  55.724   6.212  1.00  0.00    +0.000 F 
ATOM     64  C46 UNL A   1      14.476  57.540   6.691  1.00  0.00    +0.000 C 
ENDBRANCH   60   61
TORSDOF 21
ENDMDL
MODEL 2
REMARK VINA RESULT:      -7.9     46.578     53.325
ROOT
ATOM     24  C20 UNL A   1       7.348   2.948  26.037  1.00  0.00    +0.000 C 
ATOM     25  C21 UNL A   1       8.529   3.262  26.911  1.00  0.00    +0.000 C 
ATOM     26  N3  UNL A   1       9.011   4.427  27.266  1.00  0.00    +0.000 N 
ATOM     27  C22 UNL A   1      10.074   4.153  28.116  1.00  0.00    +0.000 C 
ATOM     28  C23 UNL A   1      10.929   5.021  28.706  1.00  0.00    +0.000 C 
ATOM     40  C30 UNL A   1      10.880   6.449  28.535  1.00  0.00    +0.000 C 
ATOM     41  C31 UNL A   1      11.743   7.409  29.032  1.00  0.00    +0.000 C 
ATOM     42  C32 UNL A   1      11.270   8.668  28.640  1.00  0.00    +0.000 C 
ATOM     43  C33 UNL A   1      10.136   8.488  27.865  1.00  0.00    +0.000 C 
ATOM     44  N4  UNL A   1       9.906   7.122  27.811  1.00  0.00    +0.000 N 
ATOM     45  C34 UNL A   1       9.321   9.486  27.222  1.00  0.00    +0.000 C 
ATOM     57  C41 UNL A   1       8.230   9.228  26.459  1.00  0.00    +0.000 C 
ATOM     58  N5  UNL A   1       7.667   8.005  26.129  1.00  0.00    +0.000 N 
ATOM     59  C42 UNL A   1       6.624   8.277  25.383  1.00  0.00    +0.000 C 
ATOM     60  C43 UNL A   1       5.656   7.334  24.725  1.00  0.00    +0.000 C 
ATOM     72  C50 UNL A   1       5.833   6.006  24.862  1.00  0.00    +0.000 C 
ATOM     73  C51 UNL A   1       4.983   4.972  24.278  1.00  0.00    +0.000 C 
ATOM     74  C52 UNL A   1       5.438   3.767  24.658  1.00  0.00    +0.000 C 
ATOM     75  C53 UNL A   1       6.631   3.945  25.485  1.00  0.00    +0.000 C 
ATOM     76  N6  UNL A   1       6.795   5.305  25.547  1.00  0.00    +0.000 N 
ATOM     77  C54 UNL A   1       6.392   9.713  25.175  1.00  0.00    +0.000 C 
ATOM     78  C55 UNL A   1       7.420  10.246  25.822  1.00  0.00    +0.000 C 
ATOM     79  C56 UNL A   1      10.139   2.714  28.261  1.00  0.00    +0.000 C 
ATOM     80  C57 UNL A   1       9.248   2.114  27.485  1.00  0.00    +0.000 C 
ATOM    118  H25 UNL A   1      12.590   7.230  29.594  1.00  0.00    +0.000 H 
ATOM    119  H26 UNL A   1      11.695   9.575  28.887  1.00  0.00    +0.000 H 
ATOM    120  H27 UNL A   1       9.162   6.693  27.330  1.00  0.00    +0.000 H 
ATOM    121  H28 UNL A   1       4.165   5.141  23.673  1.00  0.00    +0.000 H 
ATOM    122  H29 UNL A   1       5.013   2.861  24.406  1.00  0.00    +0.000 H 
ATOM    123  H30 UNL A   1       7.531   5.738  26.038  1.00  0.00    +0.000 H 
ATOM    124  H31 UNL A   1       5.631  10.183  24.662  1.00  0.00    +0.000 H 
ATOM    125  H32 UNL A   1       7.617  11.259  25.866  1.00  0.00    +0.000 H 
ATOM    126  H33 UNL A   1      10.794   2.220  28.887  1.00  0.00    +0.000 H 
ATOM    127  H34 UNL A   1       9.097   1.106  27.325  1.00  0.00    +0.000 H 
ENDROOT
BRANCH   24   23
ATOM    129  H36 UNL A   1       7.330  -1.006  23.689  1.00  0.00    +0.000 H 
ATOM     81  C58 UNL A   1       7.417   0.817  24.744  1.00  0.00    +0.000 C 
ATOM     82  C59 UNL A   1       7.018  -0.500  24.533  1.00  0.00    +0.000 C 
ATOM     20  C16 UNL A   1       6.190  -1.134  25.464  1.00  0.00    +0.000 C 
ATOM     21  C17 UNL A   1       5.673  -0.418  26.547  1.00  0.00    +0.000 C 
ATOM    116  H23 UNL A   1       5.032  -0.876  27.213  1.00  0.00    +0.000 H 
ATOM     22  C18 UNL A   1       6.026   0.922  26.724  1.00  0.00    +0.000 C 
ATOM    117  H24 UNL A   1       5.626   1.459  27.510  1.00  0.00    +0.000 H 
ATOM     23  C19 UNL A   1       6.921   1.542  25.838  1.00  0.00    +0.000 C 
ATOM    128  H35 UNL A   1       8.083   1.262  24.093  1.00  0.00    +0.000 H 
BRANCH   20   18
ATOM     18  C15 UNL A   1       5.818  -2.559  25.307  1.00  0.00    +0.000 C 
ATOM     19  O2  UNL A   1       4.754  -2.856  24.782  1.00  0.00    +0.000 O 
BRANCH   18   17
ATOM     17  N2  UNL A   1       6.669  -3.543  25.751  1.00  0.00    +0.000 N 
ATOM    115  H22 UNL A   1       6.508  -3.860  26.669  1.00  0.00    +0.000 H 
BRANCH   17   16
ATOM    113  H20 UNL A   1       7.815  -5.211  25.336  1.00  0.00    +0.000 H 
ATOM    114  H21 UNL A   1       7.602  -4.078  24.000  1.00  0.00    +0.000 H 
ATOM     16  C14 UNL A   1       7.772  -4.181  25.051  1.00  0.00    +0.000 C 
BRANCH   16   15
ATOM    111  H18 UNL A   1       9.854  -4.289  25.436  1.00  0.00    +0.000 H 
ATOM     15  C13 UNL A   1       9.110  -3.523  25.379  1.00  0.00    +0.000 C 
ATOM    112  H19 UNL A   1       9.298  -2.813  24.600  1.00  0.00    +0.000 H 
BRANCH   15   14
ATOM    110  H17 UNL A   1       9.355  -3.451  27.460  1.00  0.00    +0.000 H 
ATOM    109  H16 UNL A   1       8.174  -2.272  26.814  1.00  0.00    +0.000 H 
ATOM     14  C12 UNL A   1       9.129  -2.740  26.695  1.00  0.00    +0.000 C 
BRANCH   14   13
ATOM    107  H14 UNL A   1      10.396  -1.282  25.807  1.00  0.00    +0.000 H 
ATOM    108  H15 UNL A   1       9.816  -0.909  27.460  1.00  0.00    +0.000 H 
ATOM     13  C11 UNL A   1      10.205  -1.651  26.794  1.00  0.00    +0.000 C 
BRANCH   13   12
ATOM    105  H12 UNL A   1      11.716  -1.547  28.293  1.00  0.00    +0.000 H 
ATOM    106  H13 UNL A   1      11.459  -3.158  27.580  1.00  0.00    +0.000 H 
ATOM     12  C10 UNL A   1      11.541  -2.106  27.397  1.00  0.00    +0.000 C 
BRANCH   12   11
ATOM     11  C9  UNL A   1      12.738  -1.909  26.465  1.00  0.00    +0.000 C 
ATOM    103  H10 UNL A   1      13.277  -2.831  26.384  1.00  0.00    +0.000 H 
ATOM    104  H11 UNL A   1      12.381  -1.605  25.504  1.00  0.00    +0.000 H 
BRANCH   11   10
ATOM     10  N1  UNL A   1      13.623  -0.883  26.984  1.00  0.00    +0.000 N 
ATOM    102  H9  UNL A   1      13.815  -0.961  27.947  1.00  0.00    +0.000 H 
BRANCH   10    8
ATOM      9  O1  UNL A   1      15.392   0.445  26.670  1.00  0.00    +0.000 O 
ATOM      8  C8  UNL A   1      14.232   0.163  26.371  1.00  0.00    +0.000 C 
BRANCH    8    7
ATOM    101  H8  UNL A   1      14.064   1.452  24.650  1.00  0.00    +0.000 H 
ATOM      7  C7  UNL A   1      13.511   1.028  25.411  1.00  0.00    +0.000 C 
BRANCH    7    6
ATOM    100  H7  UNL A   1      11.761   1.484  26.364  1.00  0.00    +0.000 H 
ATOM      6  C6  UNL A   1      12.200   1.309  25.446  1.00  0.00    +0.000 C 
BRANCH    6    5
ATOM    130  H37 UNL A   1      12.071  -0.441  23.443  1.00  0.00    +0.000 H 
ATOM      3  C3  UNL A   1       9.754   2.558  22.827  1.00  0.00    +0.000 C 
ATOM      4  C4  UNL A   1      10.519   2.475  24.000  1.00  0.00    +0.000 C 
ATOM      5  C5  UNL A   1      11.358   1.379  24.244  1.00  0.00    +0.000 C 
ATOM     99  H6  UNL A   1      10.464   3.235  24.696  1.00  0.00    +0.000 H 
ATOM    136  H43 UNL A   1       9.257   1.558  21.034  1.00  0.00    +0.000 H 
ATOM     83  C60 UNL A   1      11.449   0.367  23.280  1.00  0.00    +0.000 C 
ATOM     84  C61 UNL A   1      10.702   0.441  22.096  1.00  0.00    +0.000 C 
ATOM     93  C69 UNL A   1       9.838   1.523  21.887  1.00  0.00    +0.000 C 
BRANCH    3    2
ATOM     97  H4  UNL A   1       8.598   4.185  23.511  1.00  0.00    +0.000 H 
ATOM      2  C2  UNL A   1       8.878   3.759  22.570  1.00  0.00    +0.000 C 
ATOM     98  H5  UNL A   1       9.443   4.447  21.976  1.00  0.00    +0.000 H 
BRANCH    2    1
ATOM      1  C1  UNL A   1       7.616   3.416  21.796  1.00  0.00    +0.000 C 
ATOM     94  H1  UNL A   1       7.215   4.306  21.354  1.00  0.00    +0.000 H 
ATOM     95  H2  UNL A   1       6.893   2.992  22.461  1.00  0.00    +0.000 H 
ATOM     96  H3  UNL A   1       7.849   2.710  21.027  1.00  0.00    +0.000 H 
ENDBRANCH    2    1
ENDBRANCH    3    2
BRANCH   84   85
ATOM     85  C62 UNL A   1      10.840  -0.657  21.099  1.00  0.00    +0.000 C 
ATOM     86  O3  UNL A   1      11.180  -0.399  19.948  1.00  0.00    +0.000 O 
BRANCH   85   87
ATOM    131  H38 UNL A   1       8.592  -2.039  20.770  1.00  0.00    +0.000 H 
ATOM    132  H39 UNL A   1       8.151  -4.367  21.301  1.00  0.00    +0.000 H 
ATOM    133  H40 UNL A   1       9.877  -5.727  22.329  1.00  0.00    +0.000 H 
ATOM    134  H41 UNL A   1      12.035  -4.756  22.863  1.00  0.00    +0.000 H 
ATOM    135  H42 UNL A   1      12.484  -2.428  22.333  1.00  0.00    +0.000 H 
ATOM     87  C63 UNL A   1      10.586  -2.070  21.472  1.00  0.00    +0.000 C 
ATOM     88  C64 UNL A   1       9.329  -2.620  21.200  1.00  0.00    +0.000 C 
ATOM     89  C65 UNL A   1       9.073  -3.956  21.513  1.00  0.00    +0.000 C 
ATOM     90  C66 UNL A   1      10.065  -4.736  22.109  1.00  0.00    +0.000 C 
ATOM     91  C67 UNL A   1      11.308  -4.180  22.411  1.00  0.00    +0.000 C 
ATOM     92  C68 UNL A   1      11.570  -2.844  22.100  1.00  0.00    +0.000 C 
ENDBRANCH   85   87
ENDBRANCH   84   85
ENDBRANCH    6    5
ENDBRANCH    7    6
ENDBRANCH    8    7
ENDBRANCH   10    8
ENDBRANCH   11   10
ENDBRANCH   12   11
ENDBRANCH   13   12
ENDBRANCH   14   13
ENDBRANCH   15   14
ENDBRANCH   16   15
ENDBRANCH   17   16
ENDBRANCH   18   17
ENDBRANCH   20   18
ENDBRANCH   24   23
BRANCH   28   29
ATOM     33  F2  UNL A   1      12.888   4.204  33.124  1.00  0.00    +0.000 F 
ATOM     34  C27 UNL A   1      14.000   3.344  31.227  1.00  0.00    +0.000 C 
ATOM     35  F3  UNL A   1      14.962   2.830  32.005  1.00  0.00    +0.000 F 
ATOM     36  C28 UNL A   1      14.066   3.193  29.850  1.00  0.00    +0.000 C 
ATOM     37  F4  UNL A   1      15.084   2.516  29.299  1.00  0.00    +0.000 F 
ATOM     38  C29 UNL A   1      13.081   3.748  29.038  1.00  0.00    +0.000 C 
ATOM     39  F5  UNL A   1      13.183   3.600  27.708  1.00  0.00    +0.000 F 
ATOM     29  C24 UNL A   1      11.997   4.446  29.591  1.00  0.00    +0.000 C 
ATOM     30  C25 UNL A   1      11.938   4.565  30.988  1.00  0.00    +0.000 C 
ATOM     31  F1  UNL A   1      10.929   5.233  31.567  1.00  0.00    +0.000 F 
ATOM     32  C26 UNL A   1      12.940   4.034  31.795  1.00  0.00    +0.000 C 
ENDBRANCH   28   29
BRANCH   45   46
ATOM     46  C35 UNL A   1       9.716  10.924  27.387  1.00  0.00    +0.000 C 
ATOM     47  C36 UNL A   1      10.722  11.502  26.600  1.00  0.00    +0.000 C 
ATOM     48  F6  UNL A   1      11.395  10.758  25.709  1.00  0.00    +0.000 F 
ATOM     49  C37 UNL A   1      11.066  12.842  26.753  1.00  0.00    +0.000 C 
ATOM     50  F7  UNL A   1      12.060  13.366  26.021  1.00  0.00    +0.000 F 
ATOM     51  C38 UNL A   1      10.393  13.634  27.672  1.00  0.00    +0.000 C 
ATOM     52  F8  UNL A   1      10.721  14.926  27.814  1.00  0.00    +0.000 F 
ATOM     53  C39 UNL A   1       9.383  13.085  28.449  1.00  0.00    +0.000 C 
ATOM     54  F9  UNL A   1       8.724  13.852  29.329  1.00  0.00    +0.000 F 
ATOM     55  C40 UNL A   1       9.054  11.739  28.317  1.00  0.00    +0.000 C 
ATOM     56  F10 UNL A   1       8.081  11.234  29.090  1.00  0.00    +0.000 F 
ENDBRANCH   45   46
BRANCH   60   61
ATOM     65  F12 UNL A   1       1.092   8.992  24.307  1.00  0.00    +0.000 F 
ATOM     66  C47 UNL A   1       2.407   8.841  22.351  1.00  0.00    +0.000 C 
ATOM     67  F13 UNL A   1       1.392   9.311  21.614  1.00  0.00    +0.000 F 
ATOM     68  C48 UNL A   1       3.608   8.501  21.745  1.00  0.00    +0.000 C 
ATOM     69  F14 UNL A   1       3.759   8.661  20.423  1.00  0.00    +0.000 F 
ATOM     70  C49 UNL A   1       4.658   7.996  22.509  1.00  0.00    +0.000 C 
ATOM     71  F15 UNL A   1       5.806   7.669  21.897  1.00  0.00    +0.000 F 
ATOM     61  C44 UNL A   1       4.534   7.844  23.898  1.00  0.00    +0.000 C 
ATOM     62  C45 UNL A   1       3.316   8.205  24.488  1.00  0.00    +0.000 C 
ATOM     63  F11 UNL A   1       3.145   8.058  25.810  1.00  0.00    +0.000 F 
ATOM     64  C46 UNL A   1       2.259   8.687  23.721  1.00  0.00    +0.000 C 
ENDBRANCH   60   61
TORSDOF 21
ENDMDL
MODEL 3
REMARK VINA RESULT:      -7.8      0.353      2.004
ROOT
ATOM     24  C20 UNL A   1      13.378  50.453   3.305  1.00  0.00    +0.000 C 
ATOM     25  C21 UNL A   1      14.244  49.938   2.190  1.00  0.00    +0.000 C 
ATOM     26  N3  UNL A   1      15.135  50.574   1.472  1.00  0.00    +0.000 N 
ATOM     27  C22 UNL A   1      15.679  49.625   0.617  1.00  0.00    +0.000 C 
ATOM     28  C23 UNL A   1      16.603  49.797  -0.358  1.00  0.00    +0.000 C 
ATOM     40  C30 UNL A   1      17.203  51.061  -0.691  1.00  0.00    +0.000 C 
ATOM     41  C31 UNL A   1      18.095  51.353  -1.707  1.00  0.00    +0.000 C 
ATOM     42  C32 UNL A   1      18.434  52.709  -1.616  1.00  0.00    +0.000 C 
ATOM     43  C33 UNL A   1      17.721  53.270  -0.569  1.00  0.00    +0.000 C 
ATOM     44  N4  UNL A   1      16.972  52.247  -0.008  1.00  0.00    +0.000 N 
ATOM     45  C34 UNL A   1      17.722  54.636  -0.112  1.00  0.00    +0.000 C 
ATOM     57  C41 UNL A   1      16.977  55.114   0.915  1.00  0.00    +0.000 C 
ATOM     58  N5  UNL A   1      16.078  54.440   1.728  1.00  0.00    +0.000 N 
ATOM     59  C42 UNL A   1      15.622  55.329   2.577  1.00  0.00    +0.000 C 
ATOM     60  C43 UNL A   1      14.605  55.162   3.671  1.00  0.00    +0.000 C 
ATOM     72  C50 UNL A   1      14.024  53.961   3.852  1.00  0.00    +0.000 C 
ATOM     73  C51 UNL A   1      13.019  53.650   4.865  1.00  0.00    +0.000 C 
ATOM     74  C52 UNL A   1      12.698  52.349   4.776  1.00  0.00    +0.000 C 
ATOM     75  C53 UNL A   1      13.453  51.744   3.679  1.00  0.00    +0.000 C 
ATOM     76  N6  UNL A   1      14.208  52.776   3.184  1.00  0.00    +0.000 N 
ATOM     77  C54 UNL A   1      16.202  56.669   2.412  1.00  0.00    +0.000 C 
ATOM     78  C55 UNL A   1      16.994  56.492   1.363  1.00  0.00    +0.000 C 
ATOM     79  C56 UNL A   1      15.050  48.360   0.935  1.00  0.00    +0.000 C 
ATOM     80  C57 UNL A   1      14.109  48.512   1.855  1.00  0.00    +0.000 C 
ATOM    118  H25 UNL A   1      18.450  50.688  -2.412  1.00  0.00    +0.000 H 
ATOM    119  H26 UNL A   1      19.101  53.206  -2.226  1.00  0.00    +0.000 H 
ATOM    120  H27 UNL A   1      16.365  52.347   0.760  1.00  0.00    +0.000 H 
ATOM    121  H28 UNL A   1      12.621  54.321   5.539  1.00  0.00    +0.000 H 
ATOM    122  H29 UNL A   1      12.027  51.855   5.386  1.00  0.00    +0.000 H 
ATOM    123  H30 UNL A   1      14.825  52.676   2.423  1.00  0.00    +0.000 H 
ATOM    124  H31 UNL A   1      16.037  57.524   2.966  1.00  0.00    +0.000 H 
ATOM    125  H32 UNL A   1      17.551  57.241   0.922  1.00  0.00    +0.000 H 
ATOM    126  H33 UNL A   1      15.303  47.458   0.502  1.00  0.00    +0.000 H 
ATOM    127  H34 UNL A   1      13.453  47.813   2.238  1.00  0.00    +0.000 H 
ENDROOT
BRANCH   24   23
ATOM    129  H36 UNL A   1      12.616  47.239   6.506  1.00  0.00    +0.000 H 
ATOM     81  C58 UNL A   1      13.021  48.746   5.088  1.00  0.00    +0.000 C 
ATOM     82  C59 UNL A   1      12.208  47.860   5.789  1.00  0.00    +0.000 C 
ATOM     20  C16 UNL A   1      10.837  47.811   5.518  1.00  0.00    +0.000 C 
ATOM     21  C17 UNL A   1      10.300  48.566   4.472  1.00  0.00    +0.000 C 
ATOM    116  H23 UNL A   1       9.295  48.500   4.248  1.00  0.00    +0.000 H 
ATOM     22  C18 UNL A   1      11.129  49.409   3.729  1.00  0.00    +0.000 C 
ATOM    117  H24 UNL A   1      10.739  49.949   2.941  1.00  0.00    +0.000 H 
ATOM     23  C19 UNL A   1      12.491  49.525   4.049  1.00  0.00    +0.000 C 
ATOM    128  H35 UNL A   1      14.020  48.832   5.336  1.00  0.00    +0.000 H 
BRANCH   20   18
ATOM     18  C15 UNL A   1       9.936  46.938   6.305  1.00  0.00    +0.000 C 
ATOM     19  O2  UNL A   1       9.340  46.024   5.753  1.00  0.00    +0.000 O 
BRANCH   18   17
ATOM     17  N2  UNL A   1       9.772  47.158   7.651  1.00  0.00    +0.000 N 
ATOM    115  H22 UNL A   1       9.284  47.979   7.891  1.00  0.00    +0.000 H 
BRANCH   17   16
ATOM    113  H20 UNL A   1      10.355  46.975   9.624  1.00  0.00    +0.000 H 
ATOM    114  H21 UNL A   1       9.474  45.600   8.957  1.00  0.00    +0.000 H 
ATOM     16  C14 UNL A   1      10.218  46.345   8.771  1.00  0.00    +0.000 C 
BRANCH   16   15
ATOM    111  H18 UNL A   1      11.344  44.580   8.437  1.00  0.00    +0.000 H 
ATOM     15  C13 UNL A   1      11.534  45.632   8.467  1.00  0.00    +0.000 C 
ATOM    112  H19 UNL A   1      11.882  46.024   7.534  1.00  0.00    +0.000 H 
BRANCH   15   14
ATOM    110  H17 UNL A   1      13.280  45.027   9.458  1.00  0.00    +0.000 H 
ATOM    109  H16 UNL A   1      12.189  46.049  10.442  1.00  0.00    +0.000 H 
ATOM     14  C12 UNL A   1      12.646  45.888   9.488  1.00  0.00    +0.000 C 
BRANCH   14   13
ATOM    107  H14 UNL A   1      14.445  46.727   8.729  1.00  0.00    +0.000 H 
ATOM    108  H15 UNL A   1      12.978  47.738   8.552  1.00  0.00    +0.000 H 
ATOM     13  C11 UNL A   1      13.548  47.091   9.186  1.00  0.00    +0.000 C 
BRANCH   13   12
ATOM    105  H12 UNL A   1      14.715  47.416  10.939  1.00  0.00    +0.000 H 
ATOM    106  H13 UNL A   1      14.270  48.884  10.038  1.00  0.00    +0.000 H 
ATOM     12  C10 UNL A   1      13.945  47.933  10.406  1.00  0.00    +0.000 C 
BRANCH   12   11
ATOM     11  C9  UNL A   1      12.789  48.203  11.373  1.00  0.00    +0.000 C 
ATOM    103  H10 UNL A   1      11.971  47.556  11.132  1.00  0.00    +0.000 H 
ATOM    104  H11 UNL A   1      13.124  48.019  12.372  1.00  0.00    +0.000 H 
BRANCH   11   10
ATOM     10  N1  UNL A   1      12.352  49.582  11.270  1.00  0.00    +0.000 N 
ATOM    102  H9  UNL A   1      13.061  50.247  11.431  1.00  0.00    +0.000 H 
BRANCH   10    8
ATOM      9  O1  UNL A   1      10.323  50.272  11.901  1.00  0.00    +0.000 O 
ATOM      8  C8  UNL A   1      11.136  50.115  10.991  1.00  0.00    +0.000 C 
BRANCH    8    7
ATOM    101  H8  UNL A   1       9.752  50.740   9.459  1.00  0.00    +0.000 H 
ATOM      7  C7  UNL A   1      10.727  50.435   9.605  1.00  0.00    +0.000 C 
BRANCH    7    6
ATOM    100  H7  UNL A   1      11.275  49.685   7.784  1.00  0.00    +0.000 H 
ATOM      6  C6  UNL A   1      11.516  50.364   8.523  1.00  0.00    +0.000 C 
BRANCH    6    5
ATOM    130  H37 UNL A   1      13.990  49.574   7.933  1.00  0.00    +0.000 H 
ATOM      3  C3  UNL A   1      13.813  53.383   8.383  1.00  0.00    +0.000 C 
ATOM      4  C4  UNL A   1      12.661  52.593   8.514  1.00  0.00    +0.000 C 
ATOM      5  C5  UNL A   1      12.709  51.203   8.338  1.00  0.00    +0.000 C 
ATOM     99  H6  UNL A   1      11.761  53.043   8.745  1.00  0.00    +0.000 H 
ATOM    136  H43 UNL A   1      15.879  53.335   7.944  1.00  0.00    +0.000 H 
ATOM     83  C60 UNL A   1      13.939  50.597   8.055  1.00  0.00    +0.000 C 
ATOM     84  C61 UNL A   1      15.103  51.371   7.934  1.00  0.00    +0.000 C 
ATOM     93  C69 UNL A   1      15.030  52.762   8.072  1.00  0.00    +0.000 C 
BRANCH    3    2
ATOM     97  H4  UNL A   1      14.478  55.143   9.337  1.00  0.00    +0.000 H 
ATOM      2  C2  UNL A   1      13.746  54.873   8.604  1.00  0.00    +0.000 C 
ATOM     98  H5  UNL A   1      13.934  55.347   7.663  1.00  0.00    +0.000 H 
BRANCH    2    1
ATOM      1  C1  UNL A   1      12.382  55.339   9.086  1.00  0.00    +0.000 C 
ATOM     94  H1  UNL A   1      11.678  55.273   8.282  1.00  0.00    +0.000 H 
ATOM     95  H2  UNL A   1      12.448  56.353   9.421  1.00  0.00    +0.000 H 
ATOM     96  H3  UNL A   1      12.057  54.718   9.895  1.00  0.00    +0.000 H 
ENDBRANCH    2    1
ENDBRANCH    3    2
BRANCH   84   85
ATOM     85  C62 UNL A   1      16.389  50.678   7.639  1.00  0.00    +0.000 C 
ATOM     86  O3  UNL A   1      17.301  50.707   8.460  1.00  0.00    +0.000 O 
BRANCH   85   87
ATOM    131  H38 UNL A   1      17.194  51.657   5.302  1.00  0.00    +0.000 H 
ATOM    132  H39 UNL A   1      17.600  50.475   3.220  1.00  0.00    +0.000 H 
ATOM    133  H40 UNL A   1      17.205  48.085   3.084  1.00  0.00    +0.000 H 
ATOM    134  H41 UNL A   1      16.368  46.877   5.013  1.00  0.00    +0.000 H 
ATOM    135  H42 UNL A   1      15.962  48.053   7.100  1.00  0.00    +0.000 H 
ATOM     87  C63 UNL A   1      16.589  49.936   6.370  1.00  0.00    +0.000 C 
ATOM     88  C64 UNL A   1      17.033  50.638   5.246  1.00  0.00    +0.000 C 
ATOM     89  C65 UNL A   1      17.259  49.960   4.047  1.00  0.00    +0.000 C 
ATOM     90  C66 UNL A   1      17.026  48.587   3.967  1.00  0.00    +0.000 C 
ATOM     91  C67 UNL A   1      16.551  47.890   5.079  1.00  0.00    +0.000 C 
ATOM     92  C68 UNL A   1      16.324  48.564   6.281  1.00  0.00    +0.000 C 
ENDBRANCH   85   87
ENDBRANCH   84   85
ENDBRANCH    6    5
ENDBRANCH    7    6
ENDBRANCH    8    7
ENDBRANCH   10    8
ENDBRANCH   11   10
ENDBRANCH   12   11
ENDBRANCH   13   12
ENDBRANCH   14   13
ENDBRANCH   15   14
ENDBRANCH   16   15
ENDBRANCH   17   16
ENDBRANCH   18   17
ENDBRANCH   20   18
ENDBRANCH   24   23
BRANCH   28   29
ATOM     33  F2  UNL A   1      19.539  45.940  -1.088  1.00  0.00    +0.000 F 
ATOM     34  C27 UNL A   1      17.766  46.305  -2.605  1.00  0.00    +0.000 C 
ATOM     35  F3  UNL A   1      18.131  45.227  -3.313  1.00  0.00    +0.000 F 
ATOM     36  C28 UNL A   1      16.683  47.070  -3.012  1.00  0.00    +0.000 C 
ATOM     37  F4  UNL A   1      15.989  46.718  -4.104  1.00  0.00    +0.000 F 
ATOM     38  C29 UNL A   1      16.319  48.204  -2.293  1.00  0.00    +0.000 C 
ATOM     39  F5  UNL A   1      15.277  48.933  -2.722  1.00  0.00    +0.000 F 
ATOM     29  C24 UNL A   1      17.019  48.583  -1.138  1.00  0.00    +0.000 C 
ATOM     30  C25 UNL A   1      18.095  47.781  -0.730  1.00  0.00    +0.000 C 
ATOM     31  F1  UNL A   1      18.806  48.106   0.361  1.00  0.00    +0.000 F 
ATOM     32  C26 UNL A   1      18.475  46.663  -1.469  1.00  0.00    +0.000 C 
ENDBRANCH   28   29
BRANCH   45   46
ATOM     46  C35 UNL A   1      18.597  55.614  -0.837  1.00  0.00    +0.000 C 
ATOM     47  C36 UNL A   1      19.843  56.004  -0.324  1.00  0.00    +0.000 C 
ATOM     48  F6  UNL A   1      20.257  55.545   0.867  1.00  0.00    +0.000 F 
ATOM     49  C37 UNL A   1      20.651  56.900  -1.017  1.00  0.00    +0.000 C 
ATOM     50  F7  UNL A   1      21.819  57.294  -0.489  1.00  0.00    +0.000 F 
ATOM     51  C38 UNL A   1      20.246  57.398  -2.247  1.00  0.00    +0.000 C 
ATOM     52  F8  UNL A   1      21.028  58.256  -2.916  1.00  0.00    +0.000 F 
ATOM     53  C39 UNL A   1      19.025  57.012  -2.780  1.00  0.00    +0.000 C 
ATOM     54  F9  UNL A   1      18.636  57.483  -3.973  1.00  0.00    +0.000 F 
ATOM     55  C40 UNL A   1      18.202  56.136  -2.077  1.00  0.00    +0.000 C 
ATOM     56  F10 UNL A   1      17.022  55.789  -2.613  1.00  0.00    +0.000 F 
ENDBRANCH   45   46
BRANCH   60   61
ATOM     65  F12 UNL A   1      11.607  58.867   4.688  1.00  0.00    +0.000 F 
ATOM     66  C47 UNL A   1      13.419  58.467   6.148  1.00  0.00    +0.000 C 
ATOM     67  F13 UNL A   1      13.047  59.497   6.919  1.00  0.00    +0.000 F 
ATOM     68  C48 UNL A   1      14.546  57.726   6.474  1.00  0.00    +0.000 C 
ATOM     69  F14 UNL A   1      15.253  58.030   7.572  1.00  0.00    +0.000 F 
ATOM     70  C49 UNL A   1      14.944  56.664   5.664  1.00  0.00    +0.000 C 
ATOM     71  F15 UNL A   1      16.040  55.969   5.998  1.00  0.00    +0.000 F 
ATOM     61  C44 UNL A   1      14.207  56.308   4.525  1.00  0.00    +0.000 C 
ATOM     62  C45 UNL A   1      13.066  57.064   4.223  1.00  0.00    +0.000 C 
ATOM     63  F11 UNL A   1      12.342  56.773   3.132  1.00  0.00    +0.000 F 
ATOM     64  C46 UNL A   1      12.683  58.140   5.019  1.00  0.00    +0.000 C 
ENDBRANCH   60   61
TORSDOF 21
ENDMDL
MODEL 4
REMARK VINA RESULT:      -7.8      3.080      8.149
ROOT
ATOM     24  C20 UNL A   1      13.855  53.666   5.172  1.00  0.00    +0.000 C 
ATOM     25  C21 UNL A   1      14.804  54.124   4.100  1.00  0.00    +0.000 C 
ATOM     26  N3  UNL A   1      15.298  53.454   3.090  1.00  0.00    +0.000 N 
ATOM     27  C22 UNL A   1      16.079  54.359   2.383  1.00  0.00    +0.000 C 
ATOM     28  C23 UNL A   1      16.843  54.139   1.286  1.00  0.00    +0.000 C 
ATOM     40  C30 UNL A   1      16.985  52.860   0.642  1.00  0.00    +0.000 C 
ATOM     41  C31 UNL A   1      17.790  52.518  -0.430  1.00  0.00    +0.000 C 
ATOM     42  C32 UNL A   1      17.563  51.170  -0.735  1.00  0.00    +0.000 C 
ATOM     43  C33 UNL A   1      16.648  50.663   0.174  1.00  0.00    +0.000 C 
ATOM     44  N4  UNL A   1      16.299  51.711   1.011  1.00  0.00    +0.000 N 
ATOM     45  C34 UNL A   1      16.128  49.323   0.271  1.00  0.00    +0.000 C 
ATOM     57  C41 UNL A   1      15.244  48.897   1.207  1.00  0.00    +0.000 C 
ATOM     58  N5  UNL A   1      14.659  49.610   2.243  1.00  0.00    +0.000 N 
ATOM     59  C42 UNL A   1      13.872  48.766   2.863  1.00  0.00    +0.000 C 
ATOM     60  C43 UNL A   1      13.009  48.987   4.074  1.00  0.00    +0.000 C 
ATOM     72  C50 UNL A   1      13.008  50.194   4.671  1.00  0.00    +0.000 C 
ATOM     73  C51 UNL A   1      12.231  50.555   5.852  1.00  0.00    +0.000 C 
ATOM     74  C52 UNL A   1      12.449  51.848   6.141  1.00  0.00    +0.000 C 
ATOM     75  C53 UNL A   1      13.407  52.397   5.181  1.00  0.00    +0.000 C 
ATOM     76  N6  UNL A   1      13.688  51.342   4.351  1.00  0.00    +0.000 N 
ATOM     77  C54 UNL A   1      13.849  47.421   2.272  1.00  0.00    +0.000 C 
ATOM     78  C55 UNL A   1      14.730  47.545   1.288  1.00  0.00    +0.000 C 
ATOM     79  C56 UNL A   1      15.957  55.637   3.052  1.00  0.00    +0.000 C 
ATOM     80  C57 UNL A   1      15.233  55.530   4.157  1.00  0.00    +0.000 C 
ATOM    118  H25 UNL A   1      18.445  53.146  -0.921  1.00  0.00    +0.000 H 
ATOM    119  H26 UNL A   1      18.002  50.644  -1.506  1.00  0.00    +0.000 H 
ATOM    120  H27 UNL A   1      15.661  51.650   1.757  1.00  0.00    +0.000 H 
ATOM    121  H28 UNL A   1      11.613  49.919   6.380  1.00  0.00    +0.000 H 
ATOM    122  H29 UNL A   1      12.009  52.371   6.915  1.00  0.00    +0.000 H 
ATOM    123  H30 UNL A   1      14.318  51.404   3.595  1.00  0.00    +0.000 H 
ATOM    124  H31 UNL A   1      13.294  46.596   2.549  1.00  0.00    +0.000 H 
ATOM    125  H32 UNL A   1      15.012  46.776   0.660  1.00  0.00    +0.000 H 
ATOM    126  H33 UNL A   1      16.379  56.515   2.713  1.00  0.00    +0.000 H 
ATOM    127  H34 UNL A   1      15.024  56.246   4.870  1.00  0.00    +0.000 H 
ENDROOT
BRANCH   24   23
ATOM    129  H36 UNL A   1      13.957  55.638   9.326  1.00  0.00    +0.000 H 
ATOM     81  C58 UNL A   1      13.993  54.729   7.423  1.00  0.00    +0.000 C 
ATOM     82  C59 UNL A   1      13.524  55.617   8.388  1.00  0.00    +0.000 C 
ATOM     20  C16 UNL A   1      12.466  56.479   8.087  1.00  0.00    +0.000 C 
ATOM     21  C17 UNL A   1      11.803  56.375   6.860  1.00  0.00    +0.000 C 
ATOM    116  H23 UNL A   1      10.998  56.986   6.653  1.00  0.00    +0.000 H 
ATOM     22  C18 UNL A   1      12.235  55.440   5.916  1.00  0.00    +0.000 C 
ATOM    117  H24 UNL A   1      11.732  55.347   5.019  1.00  0.00    +0.000 H 
ATOM     23  C19 UNL A   1      13.350  54.629   6.181  1.00  0.00    +0.000 C 
ATOM    128  H35 UNL A   1      14.818  54.143   7.623  1.00  0.00    +0.000 H 
BRANCH   20   18
ATOM     18  C15 UNL A   1      12.003  57.489   9.065  1.00  0.00    +0.000 C 
ATOM     19  O2  UNL A   1      12.213  58.676   8.860  1.00  0.00    +0.000 O 
BRANCH   18   17
ATOM     17  N2  UNL A   1      11.338  57.091  10.199  1.00  0.00    +0.000 N 
ATOM    115  H22 UNL A   1      11.882  57.054  11.019  1.00  0.00    +0.000 H 
BRANCH   17   16
ATOM    113  H20 UNL A   1       9.760  56.478  11.383  1.00  0.00    +0.000 H 
ATOM    114  H21 UNL A   1       9.340  57.544  10.041  1.00  0.00    +0.000 H 
ATOM     16  C14 UNL A   1       9.941  56.718  10.357  1.00  0.00    +0.000 C 
BRANCH   16   15
ATOM    111  H18 UNL A   1       8.546  55.276   9.672  1.00  0.00    +0.000 H 
ATOM     15  C13 UNL A   1       9.575  55.511   9.497  1.00  0.00    +0.000 C 
ATOM    112  H19 UNL A   1       9.776  55.789   8.483  1.00  0.00    +0.000 H 
BRANCH   15   14
ATOM    110  H17 UNL A   1      11.422  54.580   9.843  1.00  0.00    +0.000 H 
ATOM    109  H16 UNL A   1      10.231  53.560   8.981  1.00  0.00    +0.000 H 
ATOM     14  C12 UNL A   1      10.406  54.255   9.776  1.00  0.00    +0.000 C 
BRANCH   14   13
ATOM    107  H14 UNL A   1      10.795  53.895  11.833  1.00  0.00    +0.000 H 
ATOM    108  H15 UNL A   1       9.079  53.783  11.333  1.00  0.00    +0.000 H 
ATOM     13  C11 UNL A   1      10.097  53.546  11.100  1.00  0.00    +0.000 C 
BRANCH   13   12
ATOM    105  H12 UNL A   1      11.048  51.706  11.599  1.00  0.00    +0.000 H 
ATOM    106  H13 UNL A   1       9.273  51.641  11.488  1.00  0.00    +0.000 H 
ATOM     12  C10 UNL A   1      10.179  52.014  11.057  1.00  0.00    +0.000 C 
BRANCH   12   11
ATOM     11  C9  UNL A   1      10.266  51.441   9.641  1.00  0.00    +0.000 C 
ATOM    103  H10 UNL A   1       9.315  51.032   9.367  1.00  0.00    +0.000 H 
ATOM    104  H11 UNL A   1      10.538  52.225   8.966  1.00  0.00    +0.000 H 
BRANCH   11   10
ATOM     10  N1  UNL A   1      11.271  50.396   9.576  1.00  0.00    +0.000 N 
ATOM    102  H9  UNL A   1      12.123  50.624  10.015  1.00  0.00    +0.000 H 
BRANCH   10    8
ATOM      9  O1  UNL A   1      10.381  48.903   8.172  1.00  0.00    +0.000 O 
ATOM      8  C8  UNL A   1      11.239  49.161   9.016  1.00  0.00    +0.000 C 
BRANCH    8    7
ATOM    101  H8  UNL A   1      11.813  47.435  10.175  1.00  0.00    +0.000 H 
ATOM      7  C7  UNL A   1      12.158  48.086   9.452  1.00  0.00    +0.000 C 
BRANCH    7    6
ATOM    100  H7  UNL A   1      13.655  46.938   8.666  1.00  0.00    +0.000 H 
ATOM      6  C6  UNL A   1      13.399  47.885   8.987  1.00  0.00    +0.000 C 
BRANCH    6    5
ATOM    130  H37 UNL A   1      14.269  49.448  10.959  1.00  0.00    +0.000 H 
ATOM      3  C3  UNL A   1      15.962  50.333   7.628  1.00  0.00    +0.000 C 
ATOM      4  C4  UNL A   1      15.028  49.288   7.701  1.00  0.00    +0.000 C 
ATOM      5  C5  UNL A   1      14.414  48.945   8.913  1.00  0.00    +0.000 C 
ATOM     99  H6  UNL A   1      14.789  48.761   6.845  1.00  0.00    +0.000 H 
ATOM    136  H43 UNL A   1      16.984  51.795   8.759  1.00  0.00    +0.000 H 
ATOM     83  C60 UNL A   1      14.722  49.684  10.062  1.00  0.00    +0.000 C 
ATOM     84  C61 UNL A   1      15.642  50.741  10.004  1.00  0.00    +0.000 C 
ATOM     93  C69 UNL A   1      16.277  51.043   8.793  1.00  0.00    +0.000 C 
BRANCH    3    2
ATOM     97  H4  UNL A   1      16.027  51.506   5.876  1.00  0.00    +0.000 H 
ATOM      2  C2  UNL A   1      16.590  50.705   6.308  1.00  0.00    +0.000 C 
ATOM     98  H5  UNL A   1      17.602  50.992   6.503  1.00  0.00    +0.000 H 
BRANCH    2    1
ATOM      1  C1  UNL A   1      16.625  49.548   5.323  1.00  0.00    +0.000 C 
ATOM     94  H1  UNL A   1      17.422  48.882   5.582  1.00  0.00    +0.000 H 
ATOM     95  H2  UNL A   1      16.783  49.925   4.334  1.00  0.00    +0.000 H 
ATOM     96  H3  UNL A   1      15.694  49.021   5.358  1.00  0.00    +0.000 H 
ENDBRANCH    2    1
ENDBRANCH    3    2
BRANCH   84   85
ATOM     85  C62 UNL A   1      15.930  51.501  11.252  1.00  0.00    +0.000 C 
ATOM     86  O3  UNL A   1      17.036  51.415  11.779  1.00  0.00    +0.000 O 
BRANCH   85   87
ATOM    131  H38 UNL A   1      14.733  51.178  13.604  1.00  0.00    +0.000 H 
ATOM    132  H39 UNL A   1      13.107  52.619  14.689  1.00  0.00    +0.000 H 
ATOM    133  H40 UNL A   1      12.328  54.627  13.574  1.00  0.00    +0.000 H 
ATOM    134  H41 UNL A   1      13.143  55.183  11.358  1.00  0.00    +0.000 H 
ATOM    135  H42 UNL A   1      14.772  53.749  10.267  1.00  0.00    +0.000 H 
ATOM     87  C63 UNL A   1      14.908  52.378  11.872  1.00  0.00    +0.000 C 
ATOM     88  C64 UNL A   1      14.407  52.038  13.133  1.00  0.00    +0.000 C 
ATOM     89  C65 UNL A   1      13.467  52.861  13.754  1.00  0.00    +0.000 C 
ATOM     90  C66 UNL A   1      13.015  54.014  13.109  1.00  0.00    +0.000 C 
ATOM     91  C67 UNL A   1      13.488  54.337  11.837  1.00  0.00    +0.000 C 
ATOM     92  C68 UNL A   1      14.430  53.517  11.212  1.00  0.00    +0.000 C 
ENDBRANCH   85   87
ENDBRANCH   84   85
ENDBRANCH    6    5
ENDBRANCH    7    6
ENDBRANCH    8    7
ENDBRANCH   10    8
ENDBRANCH   11   10
ENDBRANCH   12   11
ENDBRANCH   13   12
ENDBRANCH   14   13
ENDBRANCH   15   14
ENDBRANCH   16   15
ENDBRANCH   17   16
ENDBRANCH   18   17
ENDBRANCH   20   18
ENDBRANCH   24   23
BRANCH   28   29
ATOM     33  F2  UNL A   1      17.238  57.883  -1.851  1.00  0.00    +0.000 F 
ATOM     34  C27 UNL A   1      18.996  57.512  -0.319  1.00  0.00    +0.000 C 
ATOM     35  F3  UNL A   1      19.675  58.553  -0.823  1.00  0.00    +0.000 F 
ATOM     36  C28 UNL A   1      19.540  56.763   0.714  1.00  0.00    +0.000 C 
ATOM     37  F4  UNL A   1      20.737  57.092   1.221  1.00  0.00    +0.000 F 
ATOM     38  C29 UNL A   1      18.849  55.666   1.220  1.00  0.00    +0.000 C 
ATOM     39  F5  UNL A   1      19.409  54.951   2.207  1.00  0.00    +0.000 F 
ATOM     29  C24 UNL A   1      17.588  55.311   0.717  1.00  0.00    +0.000 C 
ATOM     30  C25 UNL A   1      17.047  56.098  -0.311  1.00  0.00    +0.000 C 
ATOM     31  F1  UNL A   1      15.850  55.794  -0.835  1.00  0.00    +0.000 F 
ATOM     32  C26 UNL A   1      17.754  57.177  -0.835  1.00  0.00    +0.000 C 
ENDBRANCH   28   29
BRANCH   45   46
ATOM     46  C35 UNL A   1      16.615  48.311  -0.722  1.00  0.00    +0.000 C 
ATOM     47  C36 UNL A   1      15.839  47.938  -1.829  1.00  0.00    +0.000 C 
ATOM     48  F6  UNL A   1      14.609  48.447  -1.994  1.00  0.00    +0.000 F 
ATOM     49  C37 UNL A   1      16.312  47.010  -2.752  1.00  0.00    +0.000 C 
ATOM     50  F7  UNL A   1      15.538  46.635  -3.780  1.00  0.00    +0.000 F 
ATOM     51  C38 UNL A   1      17.577  46.461  -2.603  1.00  0.00    +0.000 C 
ATOM     52  F8  UNL A   1      18.034  45.571  -3.495  1.00  0.00    +0.000 F 
ATOM     53  C39 UNL A   1      18.368  46.828  -1.523  1.00  0.00    +0.000 C 
ATOM     54  F9  UNL A   1      19.595  46.307  -1.384  1.00  0.00    +0.000 F 
ATOM     55  C40 UNL A   1      17.887  47.737  -0.585  1.00  0.00    +0.000 C 
ATOM     56  F10 UNL A   1      18.670  48.065   0.455  1.00  0.00    +0.000 F 
ENDBRANCH   45   46
BRANCH   60   61
ATOM     65  F12 UNL A   1       8.759  46.643   4.519  1.00  0.00    +0.000 F 
ATOM     66  C47 UNL A   1      10.630  45.790   5.680  1.00  0.00    +0.000 C 
ATOM     67  F13 UNL A   1       9.886  44.794   6.179  1.00  0.00    +0.000 F 
ATOM     68  C48 UNL A   1      11.971  45.892   6.018  1.00  0.00    +0.000 C 
ATOM     69  F14 UNL A   1      12.529  44.982   6.830  1.00  0.00    +0.000 F 
ATOM     70  C49 UNL A   1      12.743  46.937   5.512  1.00  0.00    +0.000 C 
ATOM     71  F15 UNL A   1      14.035  47.016   5.860  1.00  0.00    +0.000 F 
ATOM     61  C44 UNL A   1      12.190  47.886   4.640  1.00  0.00    +0.000 C 
ATOM     62  C45 UNL A   1      10.836  47.755   4.305  1.00  0.00    +0.000 C 
ATOM     63  F11 UNL A   1      10.260  48.652   3.490  1.00  0.00    +0.000 F 
ATOM     64  C46 UNL A   1      10.061  46.725   4.829  1.00  0.00    +0.000 C 
ENDBRANCH   60   61
TORSDOF 21
ENDMDL
MODEL 5
REMARK VINA RESULT:      -7.7      2.907      8.307
ROOT
ATOM     24  C20 UNL A   1      14.044  53.677   5.172  1.00  0.00    +0.000 C 
ATOM     25  C21 UNL A   1      14.939  54.171   4.071  1.00  0.00    +0.000 C 
ATOM     26  N3  UNL A   1      15.426  53.520   3.044  1.00  0.00    +0.000 N 
ATOM     27  C22 UNL A   1      16.148  54.454   2.313  1.00  0.00    +0.000 C 
ATOM     28  C23 UNL A   1      16.885  54.263   1.193  1.00  0.00    +0.000 C 
ATOM     40  C30 UNL A   1      17.055  52.991   0.542  1.00  0.00    +0.000 C 
ATOM     41  C31 UNL A   1      17.837  52.679  -0.555  1.00  0.00    +0.000 C 
ATOM     42  C32 UNL A   1      17.652  51.324  -0.855  1.00  0.00    +0.000 C 
ATOM     43  C33 UNL A   1      16.787  50.782   0.083  1.00  0.00    +0.000 C 
ATOM     44  N4  UNL A   1      16.425  51.817   0.932  1.00  0.00    +0.000 N 
ATOM     45  C34 UNL A   1      16.321  49.424   0.195  1.00  0.00    +0.000 C 
ATOM     57  C41 UNL A   1      15.485  48.964   1.158  1.00  0.00    +0.000 C 
ATOM     58  N5  UNL A   1      14.907  49.654   2.214  1.00  0.00    +0.000 N 
ATOM     59  C42 UNL A   1      14.172  48.781   2.857  1.00  0.00    +0.000 C 
ATOM     60  C43 UNL A   1      13.341  48.969   4.096  1.00  0.00    +0.000 C 
ATOM     72  C50 UNL A   1      13.314  50.175   4.694  1.00  0.00    +0.000 C 
ATOM     73  C51 UNL A   1      12.562  50.506   5.901  1.00  0.00    +0.000 C 
ATOM     74  C52 UNL A   1      12.739  51.807   6.183  1.00  0.00    +0.000 C 
ATOM     75  C53 UNL A   1      13.644  52.392   5.194  1.00  0.00    +0.000 C 
ATOM     76  N6  UNL A   1      13.939  51.349   4.354  1.00  0.00    +0.000 N 
ATOM     77  C54 UNL A   1      14.182  47.436   2.266  1.00  0.00    +0.000 C 
ATOM     78  C55 UNL A   1      15.025  47.594   1.254  1.00  0.00    +0.000 C 
ATOM     79  C56 UNL A   1      16.000  55.726   2.988  1.00  0.00    +0.000 C 
ATOM     80  C57 UNL A   1      15.316  55.592   4.115  1.00  0.00    +0.000 C 
ATOM    118  H25 UNL A   1      18.451  53.332  -1.066  1.00  0.00    +0.000 H 
ATOM    119  H26 UNL A   1      18.086  50.815  -1.639  1.00  0.00    +0.000 H 
ATOM    120  H27 UNL A   1      15.814  51.731   1.698  1.00  0.00    +0.000 H 
ATOM    121  H28 UNL A   1      11.986  49.847   6.447  1.00  0.00    +0.000 H 
ATOM    122  H29 UNL A   1      12.306  52.312   6.972  1.00  0.00    +0.000 H 
ATOM    123  H30 UNL A   1      14.541  51.434   3.578  1.00  0.00    +0.000 H 
ATOM    124  H31 UNL A   1      13.668  46.591   2.559  1.00  0.00    +0.000 H 
ATOM    125  H32 UNL A   1      15.317  46.836   0.617  1.00  0.00    +0.000 H 
ATOM    126  H33 UNL A   1      16.377  56.620   2.637  1.00  0.00    +0.000 H 
ATOM    127  H34 UNL A   1      15.103  56.299   4.836  1.00  0.00    +0.000 H 
ENDROOT
BRANCH   24   23
ATOM    129  H36 UNL A   1      10.818  56.467   6.893  1.00  0.00    +0.000 H 
ATOM     81  C58 UNL A   1      12.237  55.138   6.077  1.00  0.00    +0.000 C 
ATOM     82  C59 UNL A   1      11.747  56.035   7.023  1.00  0.00    +0.000 C 
ATOM     20  C16 UNL A   1      12.515  56.351   8.147  1.00  0.00    +0.000 C 
ATOM     21  C17 UNL A   1      13.817  55.858   8.269  1.00  0.00    +0.000 C 
ATOM    116  H23 UNL A   1      14.397  56.121   9.080  1.00  0.00    +0.000 H 
ATOM     22  C18 UNL A   1      14.331  55.007   7.287  1.00  0.00    +0.000 C 
ATOM    117  H24 UNL A   1      15.300  54.661   7.364  1.00  0.00    +0.000 H 
ATOM     23  C19 UNL A   1      13.535  54.620   6.198  1.00  0.00    +0.000 C 
ATOM    128  H35 UNL A   1      11.642  54.852   5.284  1.00  0.00    +0.000 H 
BRANCH   20   18
ATOM     18  C15 UNL A   1      11.984  57.236   9.209  1.00  0.00    +0.000 C 
ATOM     19  O2  UNL A   1      12.158  58.444   9.137  1.00  0.00    +0.000 O 
BRANCH   18   17
ATOM     17  N2  UNL A   1      11.298  56.697  10.270  1.00  0.00    +0.000 N 
ATOM    115  H22 UNL A   1      10.541  57.233  10.602  1.00  0.00    +0.000 H 
BRANCH   17   16
ATOM    113  H20 UNL A   1      12.580  55.227  10.948  1.00  0.00    +0.000 H 
ATOM    114  H21 UNL A   1      11.183  55.555  11.975  1.00  0.00    +0.000 H 
ATOM     16  C14 UNL A   1      11.534  55.445  10.970  1.00  0.00    +0.000 C 
BRANCH   16   15
ATOM    111  H18 UNL A   1      10.115  53.872  11.064  1.00  0.00    +0.000 H 
ATOM     15  C13 UNL A   1      10.775  54.284  10.330  1.00  0.00    +0.000 C 
ATOM    112  H19 UNL A   1      10.262  54.688   9.483  1.00  0.00    +0.000 H 
BRANCH   15   14
ATOM    110  H17 UNL A   1      11.934  53.433   8.804  1.00  0.00    +0.000 H 
ATOM    109  H16 UNL A   1      11.112  52.243   9.858  1.00  0.00    +0.000 H 
ATOM     14  C12 UNL A   1      11.666  53.156   9.801  1.00  0.00    +0.000 C 
BRANCH   14   13
ATOM    107  H14 UNL A   1      13.331  53.916  10.882  1.00  0.00    +0.000 H 
ATOM    108  H15 UNL A   1      12.770  52.285  11.360  1.00  0.00    +0.000 H 
ATOM     13  C11 UNL A   1      12.987  52.957  10.556  1.00  0.00    +0.000 C 
BRANCH   13   12
ATOM    105  H12 UNL A   1      13.727  51.408   9.294  1.00  0.00    +0.000 H 
ATOM    106  H13 UNL A   1      14.433  53.018   9.018  1.00  0.00    +0.000 H 
ATOM     12  C10 UNL A   1      14.111  52.300   9.743  1.00  0.00    +0.000 C 
BRANCH   12   11
ATOM     11  C9  UNL A   1      15.339  51.928  10.577  1.00  0.00    +0.000 C 
ATOM    103  H10 UNL A   1      15.956  52.794  10.699  1.00  0.00    +0.000 H 
ATOM    104  H11 UNL A   1      15.014  51.569  11.531  1.00  0.00    +0.000 H 
BRANCH   11   10
ATOM     10  N1  UNL A   1      16.104  50.886   9.919  1.00  0.00    +0.000 N 
ATOM    102  H9  UNL A   1      16.311  51.069   8.974  1.00  0.00    +0.000 H 
BRANCH   10    8
ATOM      9  O1  UNL A   1      17.681  49.674  10.937  1.00  0.00    +0.000 O 
ATOM      8  C8  UNL A   1      16.584  49.704  10.382  1.00  0.00    +0.000 C 
BRANCH    8    7
ATOM    101  H8  UNL A   1      16.269  47.579  10.575  1.00  0.00    +0.000 H 
ATOM      7  C7  UNL A   1      15.860  48.432  10.163  1.00  0.00    +0.000 C 
BRANCH    7    6
ATOM    100  H7  UNL A   1      14.756  47.853   8.543  1.00  0.00    +0.000 H 
ATOM      6  C6  UNL A   1      14.717  48.293   9.476  1.00  0.00    +0.000 C 
BRANCH    6    5
ATOM    130  H37 UNL A   1      12.473  48.672   8.094  1.00  0.00    +0.000 H 
ATOM      3  C3  UNL A   1      11.989  49.542  11.802  1.00  0.00    +0.000 C 
ATOM      4  C4  UNL A   1      13.226  49.073  11.332  1.00  0.00    +0.000 C 
ATOM      5  C5  UNL A   1      13.411  48.738   9.984  1.00  0.00    +0.000 C 
ATOM     99  H6  UNL A   1      14.013  48.973  11.993  1.00  0.00    +0.000 H 
ATOM    136  H43 UNL A   1      10.005  49.993  11.237  1.00  0.00    +0.000 H 
ATOM     83  C60 UNL A   1      12.346  48.905   9.091  1.00  0.00    +0.000 C 
ATOM     84  C61 UNL A   1      11.108  49.387   9.541  1.00  0.00    +0.000 C 
ATOM     93  C69 UNL A   1      10.927  49.677  10.899  1.00  0.00    +0.000 C 
BRANCH    3    2
ATOM     97  H4  UNL A   1      11.144  50.754  13.307  1.00  0.00    +0.000 H 
ATOM      2  C2  UNL A   1      11.818  49.924  13.251  1.00  0.00    +0.000 C 
ATOM     98  H5  UNL A   1      11.436  49.068  13.766  1.00  0.00    +0.000 H 
BRANCH    2    1
ATOM      1  C1  UNL A   1      13.126  50.314  13.918  1.00  0.00    +0.000 C 
ATOM     94  H1  UNL A   1      13.280  49.705  14.785  1.00  0.00    +0.000 H 
ATOM     95  H2  UNL A   1      13.087  51.343  14.208  1.00  0.00    +0.000 H 
ATOM     96  H3  UNL A   1      13.934  50.169  13.232  1.00  0.00    +0.000 H 
ENDBRANCH    2    1
ENDBRANCH    3    2
BRANCH   84   85
ATOM     85  C62 UNL A   1      10.008  49.553   8.549  1.00  0.00    +0.000 C 
ATOM     86  O3  UNL A   1       9.764  50.665   8.089  1.00  0.00    +0.000 O 
BRANCH   85   87
ATOM    131  H38 UNL A   1       8.577  49.358   6.317  1.00  0.00    +0.000 H 
ATOM    132  H39 UNL A   1       7.301  47.464   5.494  1.00  0.00    +0.000 H 
ATOM    133  H40 UNL A   1       7.170  45.426   6.803  1.00  0.00    +0.000 H 
ATOM    134  H41 UNL A   1       8.283  45.287   8.955  1.00  0.00    +0.000 H 
ATOM    135  H42 UNL A   1       9.564  47.178   9.783  1.00  0.00    +0.000 H 
ATOM     87  C63 UNL A   1       9.203  48.395   8.092  1.00  0.00    +0.000 C 
ATOM     88  C64 UNL A   1       8.528  48.488   6.870  1.00  0.00    +0.000 C 
ATOM     89  C65 UNL A   1       7.788  47.402   6.401  1.00  0.00    +0.000 C 
ATOM     90  C66 UNL A   1       7.708  46.232   7.158  1.00  0.00    +0.000 C 
ATOM     91  C67 UNL A   1       8.354  46.149   8.392  1.00  0.00    +0.000 C 
ATOM     92  C68 UNL A   1       9.097  47.233   8.866  1.00  0.00    +0.000 C 
ENDBRANCH   85   87
ENDBRANCH   84   85
ENDBRANCH    6    5
ENDBRANCH    7    6
ENDBRANCH    8    7
ENDBRANCH   10    8
ENDBRANCH   11   10
ENDBRANCH   12   11
ENDBRANCH   13   12
ENDBRANCH   14   13
ENDBRANCH   15   14
ENDBRANCH   16   15
ENDBRANCH   17   16
ENDBRANCH   18   17
ENDBRANCH   20   18
ENDBRANCH   24   23
BRANCH   28   29
ATOM     33  F2  UNL A   1      17.020  58.041  -1.927  1.00  0.00    +0.000 F 
ATOM     34  C27 UNL A   1      18.856  57.715  -0.477  1.00  0.00    +0.000 C 
ATOM     35  F3  UNL A   1      19.477  58.781  -1.001  1.00  0.00    +0.000 F 
ATOM     36  C28 UNL A   1      19.469  56.977   0.524  1.00  0.00    +0.000 C 
ATOM     37  F4  UNL A   1      20.675  57.341   0.981  1.00  0.00    +0.000 F 
ATOM     38  C29 UNL A   1      18.836  55.854   1.051  1.00  0.00    +0.000 C 
ATOM     39  F5  UNL A   1      19.462  55.151   2.006  1.00  0.00    +0.000 F 
ATOM     29  C24 UNL A   1      17.566  55.463   0.601  1.00  0.00    +0.000 C 
ATOM     30  C25 UNL A   1      16.955  56.239  -0.395  1.00  0.00    +0.000 C 
ATOM     31  F1  UNL A   1      15.746  55.901  -0.869  1.00  0.00    +0.000 F 
ATOM     32  C26 UNL A   1      17.603  57.344  -0.940  1.00  0.00    +0.000 C 
ENDBRANCH   28   29
BRANCH   45   46
ATOM     46  C35 UNL A   1      16.814  48.431  -0.814  1.00  0.00    +0.000 C 
ATOM     47  C36 UNL A   1      18.027  47.748  -0.640  1.00  0.00    +0.000 C 
ATOM     48  F6  UNL A   1      18.804  48.013   0.421  1.00  0.00    +0.000 F 
ATOM     49  C37 UNL A   1      18.463  46.816  -1.577  1.00  0.00    +0.000 C 
ATOM     50  F7  UNL A   1      19.645  46.206  -1.414  1.00  0.00    +0.000 F 
ATOM     51  C38 UNL A   1      17.683  46.528  -2.688  1.00  0.00    +0.000 C 
ATOM     52  F8  UNL A   1      18.101  45.626  -3.587  1.00  0.00    +0.000 F 
ATOM     53  C39 UNL A   1      16.472  47.180  -2.871  1.00  0.00    +0.000 C 
ATOM     54  F9  UNL A   1      15.713  46.894  -3.938  1.00  0.00    +0.000 F 
ATOM     55  C40 UNL A   1      16.046  48.131  -1.949  1.00  0.00    +0.000 C 
ATOM     56  F10 UNL A   1      14.876  48.754  -2.158  1.00  0.00    +0.000 F 
ENDBRANCH   45   46
BRANCH   60   61
ATOM     65  F12 UNL A   1       9.549  45.908   4.055  1.00  0.00    +0.000 F 
ATOM     66  C47 UNL A   1      11.150  45.676   5.776  1.00  0.00    +0.000 C 
ATOM     67  F13 UNL A   1      10.465  44.650   6.296  1.00  0.00    +0.000 F 
ATOM     68  C48 UNL A   1      12.319  46.112   6.382  1.00  0.00    +0.000 C 
ATOM     69  F14 UNL A   1      12.774  45.493   7.481  1.00  0.00    +0.000 F 
ATOM     70  C49 UNL A   1      13.024  47.190   5.850  1.00  0.00    +0.000 C 
ATOM     71  F15 UNL A   1      14.147  47.595   6.460  1.00  0.00    +0.000 F 
ATOM     61  C44 UNL A   1      12.584  47.838   4.687  1.00  0.00    +0.000 C 
ATOM     62  C45 UNL A   1      11.406  47.373   4.086  1.00  0.00    +0.000 C 
ATOM     63  F11 UNL A   1      10.937  47.974   2.983  1.00  0.00    +0.000 F 
ATOM     64  C46 UNL A   1      10.690  46.311   4.631  1.00  0.00    +0.000 C 
ENDBRANCH   60   61
TORSDOF 21
ENDMDL
MODEL 6
REMARK VINA RESULT:      -7.7      3.195      7.579
ROOT
ATOM     24  C20 UNL A   1      13.528  53.700   5.133  1.00  0.00    +0.000 C 
ATOM     25  C21 UNL A   1      13.099  52.260   5.115  1.00  0.00    +0.000 C 
ATOM     26  N3  UNL A   1      13.483  51.291   4.322  1.00  0.00    +0.000 N 
ATOM     27  C22 UNL A   1      12.819  50.156   4.765  1.00  0.00    +0.000 C 
ATOM     28  C23 UNL A   1      12.840  48.907   4.241  1.00  0.00    +0.000 C 
ATOM     40  C30 UNL A   1      13.589  48.532   3.072  1.00  0.00    +0.000 C 
ATOM     41  C31 UNL A   1      13.621  47.312   2.420  1.00  0.00    +0.000 C 
ATOM     42  C32 UNL A   1      14.526  47.407   1.356  1.00  0.00    +0.000 C 
ATOM     43  C33 UNL A   1      15.026  48.698   1.320  1.00  0.00    +0.000 C 
ATOM     44  N4  UNL A   1      14.446  49.377   2.380  1.00  0.00    +0.000 N 
ATOM     45  C34 UNL A   1      15.965  49.272   0.390  1.00  0.00    +0.000 C 
ATOM     57  C41 UNL A   1      16.394  50.558   0.410  1.00  0.00    +0.000 C 
ATOM     58  N5  UNL A   1      16.048  51.580   1.282  1.00  0.00    +0.000 N 
ATOM     59  C42 UNL A   1      16.733  52.629   0.899  1.00  0.00    +0.000 C 
ATOM     60  C43 UNL A   1      16.734  54.021   1.468  1.00  0.00    +0.000 C 
ATOM     72  C50 UNL A   1      15.929  54.308   2.508  1.00  0.00    +0.000 C 
ATOM     73  C51 UNL A   1      15.817  55.610   3.159  1.00  0.00    +0.000 C 
ATOM     74  C52 UNL A   1      14.950  55.515   4.180  1.00  0.00    +0.000 C 
ATOM     75  C53 UNL A   1      14.422  54.152   4.234  1.00  0.00    +0.000 C 
ATOM     76  N6  UNL A   1      15.054  53.508   3.200  1.00  0.00    +0.000 N 
ATOM     77  C54 UNL A   1      17.614  52.384  -0.251  1.00  0.00    +0.000 C 
ATOM     78  C55 UNL A   1      17.341  51.117  -0.533  1.00  0.00    +0.000 C 
ATOM     79  C56 UNL A   1      12.042  50.544   5.923  1.00  0.00    +0.000 C 
ATOM     80  C57 UNL A   1      12.129  51.848   6.141  1.00  0.00    +0.000 C 
ATOM    118  H25 UNL A   1      13.072  46.475   2.673  1.00  0.00    +0.000 H 
ATOM    119  H26 UNL A   1      14.778  46.645   0.708  1.00  0.00    +0.000 H 
ATOM    120  H27 UNL A   1      14.615  50.319   2.608  1.00  0.00    +0.000 H 
ATOM    121  H28 UNL A   1      16.323  56.465   2.880  1.00  0.00    +0.000 H 
ATOM    122  H29 UNL A   1      14.698  56.281   4.825  1.00  0.00    +0.000 H 
ATOM    123  H30 UNL A   1      14.896  52.562   2.977  1.00  0.00    +0.000 H 
ATOM    124  H31 UNL A   1      18.271  53.028  -0.718  1.00  0.00    +0.000 H 
ATOM    125  H32 UNL A   1      17.753  50.596  -1.323  1.00  0.00    +0.000 H 
ATOM    126  H33 UNL A   1      11.492  49.891   6.503  1.00  0.00    +0.000 H 
ATOM    127  H34 UNL A   1      11.644  52.424   6.846  1.00  0.00    +0.000 H 
ENDROOT
BRANCH   24   23
ATOM    129  H36 UNL A   1      13.839  55.728   9.249  1.00  0.00    +0.000 H 
ATOM     81  C58 UNL A   1      13.778  54.803   7.356  1.00  0.00    +0.000 C 
ATOM     82  C59 UNL A   1      13.316  55.646   8.362  1.00  0.00    +0.000 C 
ATOM     20  C16 UNL A   1      12.142  56.380   8.172  1.00  0.00    +0.000 C 
ATOM     21  C17 UNL A   1      11.371  56.186   7.022  1.00  0.00    +0.000 C 
ATOM    116  H23 UNL A   1      10.485  56.700   6.899  1.00  0.00    +0.000 H 
ATOM     22  C18 UNL A   1      11.805  55.293   6.040  1.00  0.00    +0.000 C 
ATOM    117  H24 UNL A   1      11.225  55.131   5.201  1.00  0.00    +0.000 H 
ATOM     23  C19 UNL A   1      13.025  54.614   6.188  1.00  0.00    +0.000 C 
ATOM    128  H35 UNL A   1      14.681  54.315   7.469  1.00  0.00    +0.000 H 
BRANCH   20   18
ATOM     18  C15 UNL A   1      11.672  57.346   9.191  1.00  0.00    +0.000 C 
ATOM     19  O2  UNL A   1      12.106  58.489   9.191  1.00  0.00    +0.000 O 
BRANCH   18   17
ATOM     17  N2  UNL A   1      10.751  56.955  10.133  1.00  0.00    +0.000 N 
ATOM    115  H22 UNL A   1      10.466  57.655  10.764  1.00  0.00    +0.000 H 
BRANCH   17   16
ATOM    113  H20 UNL A   1       9.075  55.771  10.370  1.00  0.00    +0.000 H 
ATOM    114  H21 UNL A   1      10.419  55.028   9.502  1.00  0.00    +0.000 H 
ATOM     16  C14 UNL A   1      10.137  55.651  10.324  1.00  0.00    +0.000 C 
BRANCH   16   15
ATOM    111  H18 UNL A   1      11.642  54.716  11.487  1.00  0.00    +0.000 H 
ATOM     15  C13 UNL A   1      10.613  54.981  11.611  1.00  0.00    +0.000 C 
ATOM    112  H19 UNL A   1      10.454  55.689  12.398  1.00  0.00    +0.000 H 
BRANCH   15   14
ATOM    110  H17 UNL A   1      10.179  52.948  11.340  1.00  0.00    +0.000 H 
ATOM    109  H16 UNL A   1       8.792  53.932  11.900  1.00  0.00    +0.000 H 
ATOM     14  C12 UNL A   1       9.837  53.719  11.997  1.00  0.00    +0.000 C 
BRANCH   14   13
ATOM    107  H14 UNL A   1      10.157  54.054  14.071  1.00  0.00    +0.000 H 
ATOM    108  H15 UNL A   1       9.266  52.559  13.651  1.00  0.00    +0.000 H 
ATOM     13  C11 UNL A   1      10.087  53.207  13.421  1.00  0.00    +0.000 C 
BRANCH   13   12
ATOM    105  H12 UNL A   1      11.113  51.504  14.187  1.00  0.00    +0.000 H 
ATOM    106  H13 UNL A   1      11.700  52.106  12.618  1.00  0.00    +0.000 H 
ATOM     12  C10 UNL A   1      11.357  52.364  13.598  1.00  0.00    +0.000 C 
BRANCH   12   11
ATOM     11  C9  UNL A   1      12.501  53.110  14.288  1.00  0.00    +0.000 C 
ATOM    103  H10 UNL A   1      12.115  53.991  14.757  1.00  0.00    +0.000 H 
ATOM    104  H11 UNL A   1      12.943  52.466  15.018  1.00  0.00    +0.000 H 
BRANCH   11   10
ATOM     10  N1  UNL A   1      13.515  53.490  13.322  1.00  0.00    +0.000 N 
ATOM    102  H9  UNL A   1      13.721  54.453  13.307  1.00  0.00    +0.000 H 
BRANCH   10    8
ATOM      9  O1  UNL A   1      15.175  52.074  12.842  1.00  0.00    +0.000 O 
ATOM      8  C8  UNL A   1      14.228  52.748  12.438  1.00  0.00    +0.000 C 
BRANCH    8    7
ATOM    101  H8  UNL A   1      12.964  52.867  10.694  1.00  0.00    +0.000 H 
ATOM      7  C7  UNL A   1      13.952  52.792  10.985  1.00  0.00    +0.000 C 
BRANCH    7    6
ATOM    100  H7  UNL A   1      15.499  53.555   9.888  1.00  0.00    +0.000 H 
ATOM      6  C6  UNL A   1      14.875  52.742  10.014  1.00  0.00    +0.000 C 
BRANCH    6    5
ATOM    130  H37 UNL A   1      14.230  50.203  10.490  1.00  0.00    +0.000 H 
ATOM      3  C3  UNL A   1      15.845  50.606   7.030  1.00  0.00    +0.000 C 
ATOM      4  C4  UNL A   1      15.644  51.719   7.860  1.00  0.00    +0.000 C 
ATOM      5  C5  UNL A   1      15.043  51.588   9.119  1.00  0.00    +0.000 C 
ATOM     99  H6  UNL A   1      15.946  52.652   7.537  1.00  0.00    +0.000 H 
ATOM    136  H43 UNL A   1      15.550  48.520   6.865  1.00  0.00    +0.000 H 
ATOM     83  C60 UNL A   1      14.665  50.314   9.561  1.00  0.00    +0.000 C 
ATOM     84  C61 UNL A   1      14.871  49.189   8.750  1.00  0.00    +0.000 C 
ATOM     93  C69 UNL A   1      15.435  49.343   7.478  1.00  0.00    +0.000 C 
BRANCH    3    2
ATOM     97  H4  UNL A   1      15.894  51.362   5.062  1.00  0.00    +0.000 H 
ATOM      2  C2  UNL A   1      16.520  50.763   5.690  1.00  0.00    +0.000 C 
ATOM     98  H5  UNL A   1      17.469  51.225   5.861  1.00  0.00    +0.000 H 
BRANCH    2    1
ATOM      1  C1  UNL A   1      16.775  49.435   4.997  1.00  0.00    +0.000 C 
ATOM     94  H1  UNL A   1      17.522  49.565   4.241  1.00  0.00    +0.000 H 
ATOM     95  H2  UNL A   1      15.869  49.086   4.548  1.00  0.00    +0.000 H 
ATOM     96  H3  UNL A   1      17.116  48.717   5.714  1.00  0.00    +0.000 H 
ENDBRANCH    2    1
ENDBRANCH    3    2
BRANCH   84   85
ATOM     85  C62 UNL A   1      14.458  47.855   9.268  1.00  0.00    +0.000 C 
ATOM     86  O3  UNL A   1      15.311  47.027   9.577  1.00  0.00    +0.000 O 
BRANCH   85   87
ATOM    131  H38 UNL A   1      13.448  45.629  10.316  1.00  0.00    +0.000 H 
ATOM    132  H39 UNL A   1      11.119  45.040  10.670  1.00  0.00    +0.000 H 
ATOM    133  H40 UNL A   1       9.362  46.559   9.972  1.00  0.00    +0.000 H 
ATOM    134  H41 UNL A   1       9.924  48.653   8.884  1.00  0.00    +0.000 H 
ATOM    135  H42 UNL A   1      12.252  49.251   8.528  1.00  0.00    +0.000 H 
ATOM     87  C63 UNL A   1      13.026  47.504   9.435  1.00  0.00    +0.000 C 
ATOM     88  C64 UNL A   1      12.699  46.279  10.026  1.00  0.00    +0.000 C 
ATOM     89  C65 UNL A   1      11.361  45.937  10.222  1.00  0.00    +0.000 C 
ATOM     90  C66 UNL A   1      10.350  46.809   9.815  1.00  0.00    +0.000 C 
ATOM     91  C67 UNL A   1      10.674  48.017   9.195  1.00  0.00    +0.000 C 
ATOM     92  C68 UNL A   1      12.012  48.364   8.997  1.00  0.00    +0.000 C 
ENDBRANCH   85   87
ENDBRANCH   84   85
ENDBRANCH    6    5
ENDBRANCH    7    6
ENDBRANCH    8    7
ENDBRANCH   10    8
ENDBRANCH   11   10
ENDBRANCH   12   11
ENDBRANCH   13   12
ENDBRANCH   14   13
ENDBRANCH   15   14
ENDBRANCH   16   15
ENDBRANCH   17   16
ENDBRANCH   18   17
ENDBRANCH   20   18
ENDBRANCH   24   23
BRANCH   28   29
ATOM     33  F2  UNL A   1      12.432  44.973   7.136  1.00  0.00    +0.000 F 
ATOM     34  C27 UNL A   1      10.463  45.906   6.225  1.00  0.00    +0.000 C 
ATOM     35  F3  UNL A   1       9.721  44.968   6.831  1.00  0.00    +0.000 F 
ATOM     36  C28 UNL A   1       9.855  46.864   5.428  1.00  0.00    +0.000 C 
ATOM     37  F4  UNL A   1       8.523  46.863   5.280  1.00  0.00    +0.000 F 
ATOM     38  C29 UNL A   1      10.626  47.823   4.777  1.00  0.00    +0.000 C 
ATOM     39  F5  UNL A   1      10.011  48.726   4.000  1.00  0.00    +0.000 F 
ATOM     29  C24 UNL A   1      12.021  47.854   4.931  1.00  0.00    +0.000 C 
ATOM     30  C25 UNL A   1      12.611  46.891   5.761  1.00  0.00    +0.000 C 
ATOM     31  F1  UNL A   1      13.942  46.869   5.932  1.00  0.00    +0.000 F 
ATOM     32  C26 UNL A   1      11.840  45.915   6.387  1.00  0.00    +0.000 C 
ENDBRANCH   28   29
BRANCH   45   46
ATOM     46  C35 UNL A   1      16.497  48.390  -0.699  1.00  0.00    +0.000 C 
ATOM     47  C36 UNL A   1      15.755  48.132  -1.861  1.00  0.00    +0.000 C 
ATOM     48  F6  UNL A   1      14.518  48.633  -1.998  1.00  0.00    +0.000 F 
ATOM     49  C37 UNL A   1      16.269  47.324  -2.872  1.00  0.00    +0.000 C 
ATOM     50  F7  UNL A   1      15.527  47.055  -3.955  1.00  0.00    +0.000 F 
ATOM     51  C38 UNL A   1      17.542  46.786  -2.755  1.00  0.00    +0.000 C 
ATOM     52  F8  UNL A   1      18.038  46.014  -3.731  1.00  0.00    +0.000 F 
ATOM     53  C39 UNL A   1      18.299  47.043  -1.621  1.00  0.00    +0.000 C 
ATOM     54  F9  UNL A   1      19.534  46.533  -1.511  1.00  0.00    +0.000 F 
ATOM     55  C40 UNL A   1      17.778  47.828  -0.597  1.00  0.00    +0.000 C 
ATOM     56  F10 UNL A   1      18.529  48.050   0.493  1.00  0.00    +0.000 F 
ENDBRANCH   45   46
BRANCH   60   61
ATOM     65  F12 UNL A   1      17.592  57.330  -2.006  1.00  0.00    +0.000 F 
ATOM     66  C47 UNL A   1      19.154  57.131  -0.246  1.00  0.00    +0.000 C 
ATOM     67  F13 UNL A   1      19.905  58.101  -0.782  1.00  0.00    +0.000 F 
ATOM     68  C48 UNL A   1      19.556  56.506   0.925  1.00  0.00    +0.000 C 
ATOM     69  F14 UNL A   1      20.690  56.885   1.530  1.00  0.00    +0.000 F 
ATOM     70  C49 UNL A   1      18.783  55.485   1.475  1.00  0.00    +0.000 C 
ATOM     71  F15 UNL A   1      19.199  54.893   2.604  1.00  0.00    +0.000 F 
ATOM     61  C44 UNL A   1      17.579  55.087   0.876  1.00  0.00    +0.000 C 
ATOM     62  C45 UNL A   1      17.188  55.741  -0.300  1.00  0.00    +0.000 C 
ATOM     63  F11 UNL A   1      16.054  55.381  -0.919  1.00  0.00    +0.000 F 
ATOM     64  C46 UNL A   1      17.973  56.745  -0.862  1.00  0.00    +0.000 C 
ENDBRANCH   60   61
TORSDOF 21
ENDMDL
MODEL 7
REMARK VINA RESULT:      -7.7      3.165      8.511
ROOT
ATOM     24  C20 UNL A   1      14.135  53.975   4.810  1.00  0.00    +0.000 C 
ATOM     25  C21 UNL A   1      15.074  54.418   3.724  1.00  0.00    +0.000 C 
ATOM     26  N3  UNL A   1      15.568  53.731   2.725  1.00  0.00    +0.000 N 
ATOM     27  C22 UNL A   1      16.337  54.627   1.994  1.00  0.00    +0.000 C 
ATOM     28  C23 UNL A   1      17.096  54.391   0.898  1.00  0.00    +0.000 C 
ATOM     40  C30 UNL A   1      17.245  53.101   0.279  1.00  0.00    +0.000 C 
ATOM     41  C31 UNL A   1      18.046  52.742  -0.790  1.00  0.00    +0.000 C 
ATOM     42  C32 UNL A   1      17.829  51.387  -1.066  1.00  0.00    +0.000 C 
ATOM     43  C33 UNL A   1      16.923  50.891  -0.142  1.00  0.00    +0.000 C 
ATOM     44  N4  UNL A   1      16.571  51.954   0.676  1.00  0.00    +0.000 N 
ATOM     45  C34 UNL A   1      16.415  49.550  -0.013  1.00  0.00    +0.000 C 
ATOM     57  C41 UNL A   1      15.540  49.136   0.936  1.00  0.00    +0.000 C 
ATOM     58  N5  UNL A   1      14.955  49.866   1.961  1.00  0.00    +0.000 N 
ATOM     59  C42 UNL A   1      14.178  49.028   2.603  1.00  0.00    +0.000 C 
ATOM     60  C43 UNL A   1      13.321  49.267   3.814  1.00  0.00    +0.000 C 
ATOM     72  C50 UNL A   1      13.313  50.487   4.386  1.00  0.00    +0.000 C 
ATOM     73  C51 UNL A   1      12.540  50.866   5.565  1.00  0.00    +0.000 C 
ATOM     74  C52 UNL A   1      12.749  52.166   5.825  1.00  0.00    +0.000 C 
ATOM     75  C53 UNL A   1      13.697  52.703   4.849  1.00  0.00    +0.000 C 
ATOM     76  N6  UNL A   1      13.983  51.633   4.038  1.00  0.00    +0.000 N 
ATOM     77  C54 UNL A   1      14.163  47.671   2.040  1.00  0.00    +0.000 C 
ATOM     78  C55 UNL A   1      15.037  47.782   1.049  1.00  0.00    +0.000 C 
ATOM     79  C56 UNL A   1      16.209  55.918   2.638  1.00  0.00    +0.000 C 
ATOM     80  C57 UNL A   1      15.492  55.828   3.749  1.00  0.00    +0.000 C 
ATOM    118  H25 UNL A   1      18.693  53.366  -1.298  1.00  0.00    +0.000 H 
ATOM    119  H26 UNL A   1      18.268  50.848  -1.828  1.00  0.00    +0.000 H 
ATOM    120  H27 UNL A   1      15.937  51.903   1.427  1.00  0.00    +0.000 H 
ATOM    121  H28 UNL A   1      11.931  50.236   6.109  1.00  0.00    +0.000 H 
ATOM    122  H29 UNL A   1      12.310  52.701   6.591  1.00  0.00    +0.000 H 
ATOM    123  H30 UNL A   1      14.607  51.685   3.278  1.00  0.00    +0.000 H 
ATOM    124  H31 UNL A   1      13.616  46.848   2.337  1.00  0.00    +0.000 H 
ATOM    125  H32 UNL A   1      15.322  47.002   0.435  1.00  0.00    +0.000 H 
ATOM    126  H33 UNL A   1      16.621  56.792   2.279  1.00  0.00    +0.000 H 
ATOM    127  H34 UNL A   1      15.281  56.557   4.448  1.00  0.00    +0.000 H 
ENDROOT
BRANCH   24   23
ATOM    129  H36 UNL A   1      14.579  56.509   8.623  1.00  0.00    +0.000 H 
ATOM     81  C58 UNL A   1      14.456  55.359   6.860  1.00  0.00    +0.000 C 
ATOM     82  C59 UNL A   1      13.993  56.267   7.808  1.00  0.00    +0.000 C 
ATOM     20  C16 UNL A   1      12.730  56.849   7.657  1.00  0.00    +0.000 C 
ATOM     21  C17 UNL A   1      11.888  56.439   6.620  1.00  0.00    +0.000 C 
ATOM    116  H23 UNL A   1      10.942  56.841   6.532  1.00  0.00    +0.000 H 
ATOM     22  C18 UNL A   1      12.331  55.482   5.704  1.00  0.00    +0.000 C 
ATOM    117  H24 UNL A   1      11.701  55.161   4.952  1.00  0.00    +0.000 H 
ATOM     23  C19 UNL A   1      13.628  54.954   5.802  1.00  0.00    +0.000 C 
ATOM    128  H35 UNL A   1      15.414  54.983   6.935  1.00  0.00    +0.000 H 
BRANCH   20   18
ATOM     18  C15 UNL A   1      12.247  57.878   8.605  1.00  0.00    +0.000 C 
ATOM     19  O2  UNL A   1      12.809  58.963   8.665  1.00  0.00    +0.000 O 
BRANCH   18   17
ATOM     17  N2  UNL A   1      11.169  57.612   9.415  1.00  0.00    +0.000 N 
ATOM    115  H22 UNL A   1      10.341  58.096   9.191  1.00  0.00    +0.000 H 
BRANCH   17   16
ATOM    113  H20 UNL A   1      12.004  56.746  11.093  1.00  0.00    +0.000 H 
ATOM    114  H21 UNL A   1      10.265  57.034  11.167  1.00  0.00    +0.000 H 
ATOM     16  C14 UNL A   1      11.081  56.714  10.554  1.00  0.00    +0.000 C 
BRANCH   16   15
ATOM    111  H18 UNL A   1      10.018  54.888  10.727  1.00  0.00    +0.000 H 
ATOM     15  C13 UNL A   1      10.812  55.274  10.123  1.00  0.00    +0.000 C 
ATOM    112  H19 UNL A   1      10.568  55.310   9.082  1.00  0.00    +0.000 H 
BRANCH   15   14
ATOM    110  H17 UNL A   1      11.858  53.778  11.156  1.00  0.00    +0.000 H 
ATOM    109  H16 UNL A   1      12.901  54.933  10.270  1.00  0.00    +0.000 H 
ATOM     14  C12 UNL A   1      12.014  54.334  10.256  1.00  0.00    +0.000 C 
BRANCH   14   13
ATOM    107  H14 UNL A   1      11.232  52.770   9.047  1.00  0.00    +0.000 H 
ATOM    108  H15 UNL A   1      12.425  53.846   8.255  1.00  0.00    +0.000 H 
ATOM     13  C11 UNL A   1      12.160  53.297   9.135  1.00  0.00    +0.000 C 
BRANCH   13   12
ATOM    105  H12 UNL A   1      13.126  51.790  10.292  1.00  0.00    +0.000 H 
ATOM    106  H13 UNL A   1      13.217  51.573   8.528  1.00  0.00    +0.000 H 
ATOM     12  C10 UNL A   1      13.275  52.263   9.344  1.00  0.00    +0.000 C 
BRANCH   12   11
ATOM     11  C9  UNL A   1      14.683  52.861   9.321  1.00  0.00    +0.000 C 
ATOM    103  H10 UNL A   1      14.612  53.926   9.243  1.00  0.00    +0.000 H 
ATOM    104  H11 UNL A   1      15.188  52.590  10.225  1.00  0.00    +0.000 H 
BRANCH   11   10
ATOM     10  N1  UNL A   1      15.436  52.349   8.191  1.00  0.00    +0.000 N 
ATOM    102  H9  UNL A   1      15.518  52.980   7.439  1.00  0.00    +0.000 H 
BRANCH   10    8
ATOM      9  O1  UNL A   1      15.683  50.440   7.059  1.00  0.00    +0.000 O 
ATOM      8  C8  UNL A   1      16.045  51.154   7.993  1.00  0.00    +0.000 C 
BRANCH    8    7
ATOM    101  H8  UNL A   1      18.054  50.941   8.750  1.00  0.00    +0.000 H 
ATOM      7  C7  UNL A   1      17.080  50.645   8.921  1.00  0.00    +0.000 C 
BRANCH    7    6
ATOM    100  H7  UNL A   1      17.629  49.224  10.283  1.00  0.00    +0.000 H 
ATOM      6  C6  UNL A   1      16.859  49.833   9.965  1.00  0.00    +0.000 C 
BRANCH    6    5
ATOM    130  H37 UNL A   1      16.175  51.095  12.208  1.00  0.00    +0.000 H 
ATOM      3  C3  UNL A   1      13.330  48.844  10.951  1.00  0.00    +0.000 C 
ATOM      4  C4  UNL A   1      14.535  48.938  10.239  1.00  0.00    +0.000 C 
ATOM      5  C5  UNL A   1      15.576  49.768  10.679  1.00  0.00    +0.000 C 
ATOM     99  H6  UNL A   1      14.657  48.387   9.375  1.00  0.00    +0.000 H 
ATOM    136  H43 UNL A   1      12.282  49.556  12.642  1.00  0.00    +0.000 H 
ATOM     83  C60 UNL A   1      15.412  50.489  11.868  1.00  0.00    +0.000 C 
ATOM     84  C61 UNL A   1      14.220  50.395  12.600  1.00  0.00    +0.000 C 
ATOM     93  C69 UNL A   1      13.174  49.594  12.124  1.00  0.00    +0.000 C 
BRANCH    3    2
ATOM     97  H4  UNL A   1      12.537  46.913  10.649  1.00  0.00    +0.000 H 
ATOM      2  C2  UNL A   1      12.232  47.924  10.477  1.00  0.00    +0.000 C 
ATOM     98  H5  UNL A   1      11.347  48.171  11.025  1.00  0.00    +0.000 H 
BRANCH    2    1
ATOM      1  C1  UNL A   1      11.917  48.093   9.000  1.00  0.00    +0.000 C 
ATOM     94  H1  UNL A   1      11.816  47.129   8.544  1.00  0.00    +0.000 H 
ATOM     95  H2  UNL A   1      12.709  48.632   8.524  1.00  0.00    +0.000 H 
ATOM     96  H3  UNL A   1      11.001  48.636   8.890  1.00  0.00    +0.000 H 
ENDBRANCH    2    1
ENDBRANCH    3    2
BRANCH   84   85
ATOM     85  C62 UNL A   1      14.098  51.177  13.862  1.00  0.00    +0.000 C 
ATOM     86  O3  UNL A   1      14.669  50.790  14.878  1.00  0.00    +0.000 O 
BRANCH   85   87
ATOM    131  H38 UNL A   1      14.868  53.611  13.122  1.00  0.00    +0.000 H 
ATOM    132  H39 UNL A   1      13.589  55.675  13.129  1.00  0.00    +0.000 H 
ATOM    133  H40 UNL A   1      11.307  55.687  13.950  1.00  0.00    +0.000 H 
ATOM    134  H41 UNL A   1      10.308  53.646  14.801  1.00  0.00    +0.000 H 
ATOM    135  H42 UNL A   1      11.581  51.577  14.794  1.00  0.00    +0.000 H 
ATOM     87  C63 UNL A   1      13.306  52.430  13.917  1.00  0.00    +0.000 C 
ATOM     88  C64 UNL A   1      13.894  53.615  13.464  1.00  0.00    +0.000 C 
ATOM     89  C65 UNL A   1      13.162  54.803  13.476  1.00  0.00    +0.000 C 
ATOM     90  C66 UNL A   1      11.850  54.810  13.954  1.00  0.00    +0.000 C 
ATOM     91  C67 UNL A   1      11.273  53.635  14.437  1.00  0.00    +0.000 C 
ATOM     92  C68 UNL A   1      12.002  52.443  14.427  1.00  0.00    +0.000 C 
ENDBRANCH   85   87
ENDBRANCH   84   85
ENDBRANCH    6    5
ENDBRANCH    7    6
ENDBRANCH    8    7
ENDBRANCH   10    8
ENDBRANCH   11   10
ENDBRANCH   12   11
ENDBRANCH   13   12
ENDBRANCH   14   13
ENDBRANCH   15   14
ENDBRANCH   16   15
ENDBRANCH   17   16
ENDBRANCH   18   17
ENDBRANCH   20   18
ENDBRANCH   24   23
BRANCH   28   29
ATOM     33  F2  UNL A   1      17.471  58.035  -2.358  1.00  0.00    +0.000 F 
ATOM     34  C27 UNL A   1      19.212  57.747  -0.790  1.00  0.00    +0.000 C 
ATOM     35  F3  UNL A   1      19.879  58.783  -1.318  1.00  0.00    +0.000 F 
ATOM     36  C28 UNL A   1      19.754  57.043   0.276  1.00  0.00    +0.000 C 
ATOM     37  F4  UNL A   1      20.937  57.412   0.788  1.00  0.00    +0.000 F 
ATOM     38  C29 UNL A   1      19.076  55.951   0.809  1.00  0.00    +0.000 C 
ATOM     39  F5  UNL A   1      19.634  55.280   1.827  1.00  0.00    +0.000 F 
ATOM     29  C24 UNL A   1      17.829  55.557   0.300  1.00  0.00    +0.000 C 
ATOM     30  C25 UNL A   1      17.289  56.299  -0.761  1.00  0.00    +0.000 C 
ATOM     31  F1  UNL A   1      16.105  55.956  -1.292  1.00  0.00    +0.000 F 
ATOM     32  C26 UNL A   1      17.984  57.373  -1.311  1.00  0.00    +0.000 C 
ENDBRANCH   28   29
BRANCH   45   46
ATOM     46  C35 UNL A   1      16.904  48.521  -0.988  1.00  0.00    +0.000 C 
ATOM     47  C36 UNL A   1      18.069  47.778  -0.747  1.00  0.00    +0.000 C 
ATOM     48  F6  UNL A   1      18.805  48.014   0.349  1.00  0.00    +0.000 F 
ATOM     49  C37 UNL A   1      18.501  46.814  -1.654  1.00  0.00    +0.000 C 
ATOM     50  F7  UNL A   1      19.640  46.144  -1.426  1.00  0.00    +0.000 F 
ATOM     51  C38 UNL A   1      17.763  46.554  -2.799  1.00  0.00    +0.000 C 
ATOM     52  F8  UNL A   1      18.177  45.622  -3.668  1.00  0.00    +0.000 F 
ATOM     53  C39 UNL A   1      16.599  47.266  -3.048  1.00  0.00    +0.000 C 
ATOM     54  F9  UNL A   1      15.880  47.009  -4.150  1.00  0.00    +0.000 F 
ATOM     55  C40 UNL A   1      16.178  48.249  -2.157  1.00  0.00    +0.000 C 
ATOM     56  F10 UNL A   1      15.055  48.929  -2.430  1.00  0.00    +0.000 F 
ENDBRANCH   45   46
BRANCH   60   61
ATOM     65  F12 UNL A   1       9.205  46.667   4.059  1.00  0.00    +0.000 F 
ATOM     66  C47 UNL A   1      10.981  46.082   5.501  1.00  0.00    +0.000 C 
ATOM     67  F13 UNL A   1      10.250  45.090   6.024  1.00  0.00    +0.000 F 
ATOM     68  C48 UNL A   1      12.266  46.319   5.967  1.00  0.00    +0.000 C 
ATOM     69  F14 UNL A   1      12.783  45.543   6.929  1.00  0.00    +0.000 F 
ATOM     70  C49 UNL A   1      13.022  47.362   5.434  1.00  0.00    +0.000 C 
ATOM     71  F15 UNL A   1      14.259  47.574   5.907  1.00  0.00    +0.000 F 
ATOM     61  C44 UNL A   1      12.514  48.172   4.408  1.00  0.00    +0.000 C 
ATOM     62  C45 UNL A   1      11.218  47.905   3.946  1.00  0.00    +0.000 C 
ATOM     63  F11 UNL A   1      10.684  48.667   2.980  1.00  0.00    +0.000 F 
ATOM     64  C46 UNL A   1      10.455  46.879   4.495  1.00  0.00    +0.000 C 
ENDBRANCH   60   61
TORSDOF 21
ENDMDL
MODEL 8
REMARK VINA RESULT:      -7.7     41.581     47.036
ROOT
ATOM     24  C20 UNL A   1      22.441  36.044  47.234  1.00  0.00    +0.000 C 
ATOM     25  C21 UNL A   1      23.478  37.131  47.195  1.00  0.00    +0.000 C 
ATOM     26  N3  UNL A   1      23.398  38.368  47.617  1.00  0.00    +0.000 N 
ATOM     27  C22 UNL A   1      24.648  38.927  47.387  1.00  0.00    +0.000 C 
ATOM     28  C23 UNL A   1      25.057  40.200  47.602  1.00  0.00    +0.000 C 
ATOM     40  C30 UNL A   1      24.216  41.242  48.127  1.00  0.00    +0.000 C 
ATOM     41  C31 UNL A   1      24.513  42.580  48.315  1.00  0.00    +0.000 C 
ATOM     42  C32 UNL A   1      23.398  43.200  48.891  1.00  0.00    +0.000 C 
ATOM     43  C33 UNL A   1      22.391  42.257  49.023  1.00  0.00    +0.000 C 
ATOM     44  N4  UNL A   1      22.908  41.059  48.553  1.00  0.00    +0.000 N 
ATOM     45  C34 UNL A   1      21.059  42.433  49.540  1.00  0.00    +0.000 C 
ATOM     57  C41 UNL A   1      20.119  41.459  49.619  1.00  0.00    +0.000 C 
ATOM     58  N5  UNL A   1      20.208  40.128  49.238  1.00  0.00    +0.000 N 
ATOM     59  C42 UNL A   1      19.047  39.592  49.523  1.00  0.00    +0.000 C 
ATOM     60  C43 UNL A   1      18.573  38.182  49.303  1.00  0.00    +0.000 C 
ATOM     72  C50 UNL A   1      19.398  37.293  48.718  1.00  0.00    +0.000 C 
ATOM     73  C51 UNL A   1      19.076  35.898  48.433  1.00  0.00    +0.000 C 
ATOM     74  C52 UNL A   1      20.149  35.306  47.883  1.00  0.00    +0.000 C 
ATOM     75  C53 UNL A   1      21.222  36.291  47.748  1.00  0.00    +0.000 C 
ATOM     76  N6  UNL A   1      20.684  37.443  48.263  1.00  0.00    +0.000 N 
ATOM     77  C54 UNL A   1      18.092  40.521  50.143  1.00  0.00    +0.000 C 
ATOM     78  C55 UNL A   1      18.783  41.653  50.144  1.00  0.00    +0.000 C 
ATOM     79  C56 UNL A   1      25.482  37.882  46.830  1.00  0.00    +0.000 C 
ATOM     80  C57 UNL A   1      24.788  36.772  46.630  1.00  0.00    +0.000 C 
ATOM    118  H25 UNL A   1      25.404  43.042  48.073  1.00  0.00    +0.000 H 
ATOM    119  H26 UNL A   1      23.336  44.191  49.170  1.00  0.00    +0.000 H 
ATOM    120  H27 UNL A   1      22.419  40.206  48.525  1.00  0.00    +0.000 H 
ATOM    121  H28 UNL A   1      18.172  35.441  48.625  1.00  0.00    +0.000 H 
ATOM    122  H29 UNL A   1      20.206  34.314  47.602  1.00  0.00    +0.000 H 
ATOM    123  H30 UNL A   1      21.175  38.296  48.303  1.00  0.00    +0.000 H 
ATOM    124  H31 UNL A   1      17.136  40.341  50.486  1.00  0.00    +0.000 H 
ATOM    125  H32 UNL A   1      18.415  42.558  50.479  1.00  0.00    +0.000 H 
ATOM    126  H33 UNL A   1      26.486  37.989  46.616  1.00  0.00    +0.000 H 
ATOM    127  H34 UNL A   1      25.087  35.886  46.194  1.00  0.00    +0.000 H 
ENDROOT
BRANCH   24   23
ATOM    129  H36 UNL A   1      23.830  31.725  47.992  1.00  0.00    +0.000 H 
ATOM     81  C58 UNL A   1      23.154  33.703  47.717  1.00  0.00    +0.000 C 
ATOM     82  C59 UNL A   1      23.488  32.416  47.305  1.00  0.00    +0.000 C 
ATOM     20  C16 UNL A   1      23.363  32.061  45.959  1.00  0.00    +0.000 C 
ATOM     21  C17 UNL A   1      23.010  33.024  45.009  1.00  0.00    +0.000 C 
ATOM    116  H23 UNL A   1      22.955  32.770  44.011  1.00  0.00    +0.000 H 
ATOM     22  C18 UNL A   1      22.735  34.332  45.416  1.00  0.00    +0.000 C 
ATOM    117  H24 UNL A   1      22.498  35.049  44.712  1.00  0.00    +0.000 H 
ATOM     23  C19 UNL A   1      22.780  34.674  46.776  1.00  0.00    +0.000 C 
ATOM    128  H35 UNL A   1      23.181  33.944  48.721  1.00  0.00    +0.000 H 
BRANCH   20   18
ATOM     18  C15 UNL A   1      23.631  30.677  45.507  1.00  0.00    +0.000 C 
ATOM     19  O2  UNL A   1      24.785  30.297  45.362  1.00  0.00    +0.000 O 
BRANCH   18   17
ATOM     17  N2  UNL A   1      22.585  29.824  45.253  1.00  0.00    +0.000 N 
ATOM    115  H22 UNL A   1      22.777  29.093  44.622  1.00  0.00    +0.000 H 
BRANCH   17   16
ATOM    113  H20 UNL A   1      21.134  29.074  46.519  1.00  0.00    +0.000 H 
ATOM    114  H21 UNL A   1      21.068  30.812  46.225  1.00  0.00    +0.000 H 
ATOM     16  C14 UNL A   1      21.233  29.850  45.789  1.00  0.00    +0.000 C 
BRANCH   16   15
ATOM    111  H18 UNL A   1      20.676  29.238  43.837  1.00  0.00    +0.000 H 
ATOM     15  C13 UNL A   1      20.185  29.638  44.699  1.00  0.00    +0.000 C 
ATOM    112  H19 UNL A   1      19.451  28.977  45.110  1.00  0.00    +0.000 H 
BRANCH   15   14
ATOM    110  H17 UNL A   1      18.671  30.591  43.605  1.00  0.00    +0.000 H 
ATOM    109  H16 UNL A   1      20.148  31.576  43.836  1.00  0.00    +0.000 H 
ATOM     14  C12 UNL A   1      19.439  30.908  44.278  1.00  0.00    +0.000 C 
BRANCH   14   13
ATOM    107  H14 UNL A   1      17.700  31.775  45.138  1.00  0.00    +0.000 H 
ATOM    108  H15 UNL A   1      18.867  31.062  46.293  1.00  0.00    +0.000 H 
ATOM     13  C11 UNL A   1      18.727  31.655  45.413  1.00  0.00    +0.000 C 
BRANCH   13   12
ATOM    105  H12 UNL A   1      18.689  33.488  46.499  1.00  0.00    +0.000 H 
ATOM    106  H13 UNL A   1      20.309  32.897  46.058  1.00  0.00    +0.000 H 
ATOM     12  C10 UNL A   1      19.297  33.042  45.740  1.00  0.00    +0.000 C 
BRANCH   12   11
ATOM     11  C9  UNL A   1      19.340  33.991  44.539  1.00  0.00    +0.000 C 
ATOM    103  H10 UNL A   1      19.741  34.933  44.850  1.00  0.00    +0.000 H 
ATOM    104  H11 UNL A   1      19.958  33.559  43.780  1.00  0.00    +0.000 H 
BRANCH   11   10
ATOM     10  N1  UNL A   1      18.008  34.192  44.002  1.00  0.00    +0.000 N 
ATOM    102  H9  UNL A   1      17.887  33.864  43.081  1.00  0.00    +0.000 H 
BRANCH   10    8
ATOM      9  O1  UNL A   1      17.019  35.737  45.278  1.00  0.00    +0.000 O 
ATOM      8  C8  UNL A   1      16.900  34.752  44.549  1.00  0.00    +0.000 C 
BRANCH    8    7
ATOM    101  H8  UNL A   1      14.776  34.813  44.179  1.00  0.00    +0.000 H 
ATOM      7  C7  UNL A   1      15.556  34.162  44.361  1.00  0.00    +0.000 C 
BRANCH    7    6
ATOM    100  H7  UNL A   1      14.799  32.485  45.251  1.00  0.00    +0.000 H 
ATOM      6  C6  UNL A   1      15.265  32.854  44.407  1.00  0.00    +0.000 C 
BRANCH    6    5
ATOM    130  H37 UNL A   1      15.694  30.232  44.581  1.00  0.00    +0.000 H 
ATOM      3  C3  UNL A   1      16.083  31.472  40.968  1.00  0.00    +0.000 C 
ATOM      4  C4  UNL A   1      15.738  32.362  41.996  1.00  0.00    +0.000 C 
ATOM      5  C5  UNL A   1      15.578  31.919  43.316  1.00  0.00    +0.000 C 
ATOM     99  H6  UNL A   1      15.598  33.361  41.776  1.00  0.00    +0.000 H 
ATOM    136  H43 UNL A   1      16.498  29.449  40.524  1.00  0.00    +0.000 H 
ATOM     83  C60 UNL A   1      15.798  30.568  43.611  1.00  0.00    +0.000 C 
ATOM     84  C61 UNL A   1      16.158  29.668  42.597  1.00  0.00    +0.000 C 
ATOM     93  C69 UNL A   1      16.272  30.119  41.276  1.00  0.00    +0.000 C 
BRANCH    3    2
ATOM     97  H4  UNL A   1      17.323  32.131  39.394  1.00  0.00    +0.000 H 
ATOM      2  C2  UNL A   1      16.277  31.973  39.558  1.00  0.00    +0.000 C 
ATOM     98  H5  UNL A   1      15.880  31.232  38.896  1.00  0.00    +0.000 H 
BRANCH    2    1
ATOM      1  C1  UNL A   1      15.539  33.273  39.285  1.00  0.00    +0.000 C 
ATOM     94  H1  UNL A   1      15.592  33.902  40.150  1.00  0.00    +0.000 H 
ATOM     95  H2  UNL A   1      14.515  33.062  39.060  1.00  0.00    +0.000 H 
ATOM     96  H3  UNL A   1      15.991  33.772  38.454  1.00  0.00    +0.000 H 
ENDBRANCH    2    1
ENDBRANCH    3    2
BRANCH   84   85
ATOM     85  C62 UNL A   1      16.388  28.242  42.963  1.00  0.00    +0.000 C 
ATOM     86  O3  UNL A   1      17.393  27.928  43.594  1.00  0.00    +0.000 O 
BRANCH   85   87
ATOM    131  H38 UNL A   1      15.557  27.600  40.520  1.00  0.00    +0.000 H 
ATOM    132  H39 UNL A   1      14.023  25.839  39.853  1.00  0.00    +0.000 H 
ATOM    133  H40 UNL A   1      12.982  24.434  41.535  1.00  0.00    +0.000 H 
ATOM    134  H41 UNL A   1      13.441  24.807  43.888  1.00  0.00    +0.000 H 
ATOM    135  H42 UNL A   1      14.977  26.565  44.562  1.00  0.00    +0.000 H 
ATOM     87  C63 UNL A   1      15.416  27.186  42.589  1.00  0.00    +0.000 C 
ATOM     88  C64 UNL A   1      15.120  26.996  41.235  1.00  0.00    +0.000 C 
ATOM     89  C65 UNL A   1      14.232  25.990  40.852  1.00  0.00    +0.000 C 
ATOM     90  C66 UNL A   1      13.629  25.185  41.821  1.00  0.00    +0.000 C 
ATOM     91  C67 UNL A   1      13.898  25.395  43.174  1.00  0.00    +0.000 C 
ATOM     92  C68 UNL A   1      14.786  26.401  43.562  1.00  0.00    +0.000 C 
ENDBRANCH   85   87
ENDBRANCH   84   85
ENDBRANCH    6    5
ENDBRANCH    7    6
ENDBRANCH    8    7
ENDBRANCH   10    8
ENDBRANCH   11   10
ENDBRANCH   12   11
ENDBRANCH   13   12
ENDBRANCH   14   13
ENDBRANCH   15   14
ENDBRANCH   16   15
ENDBRANCH   17   16
ENDBRANCH   18   17
ENDBRANCH   20   18
ENDBRANCH   24   23
BRANCH   28   29
ATOM     33  F2  UNL A   1      29.736  40.917  48.874  1.00  0.00    +0.000 F 
ATOM     34  C27 UNL A   1      29.142  41.148  46.600  1.00  0.00    +0.000 C 
ATOM     35  F3  UNL A   1      30.409  41.455  46.286  1.00  0.00    +0.000 F 
ATOM     36  C28 UNL A   1      28.169  41.121  45.613  1.00  0.00    +0.000 C 
ATOM     37  F4  UNL A   1      28.500  41.383  44.340  1.00  0.00    +0.000 F 
ATOM     38  C29 UNL A   1      26.848  40.829  45.941  1.00  0.00    +0.000 C 
ATOM     39  F5  UNL A   1      25.926  40.828  44.967  1.00  0.00    +0.000 F 
ATOM     29  C24 UNL A   1      26.481  40.535  47.263  1.00  0.00    +0.000 C 
ATOM     30  C25 UNL A   1      27.486  40.544  48.241  1.00  0.00    +0.000 C 
ATOM     31  F1  UNL A   1      27.186  40.282  49.522  1.00  0.00    +0.000 F 
ATOM     32  C26 UNL A   1      28.801  40.866  47.914  1.00  0.00    +0.000 C 
ENDBRANCH   28   29
BRANCH   45   46
ATOM     46  C35 UNL A   1      20.666  43.802  50.008  1.00  0.00    +0.000 C 
ATOM     47  C36 UNL A   1      20.836  44.197  51.343  1.00  0.00    +0.000 C 
ATOM     48  F6  UNL A   1      21.311  43.329  52.249  1.00  0.00    +0.000 F 
ATOM     49  C37 UNL A   1      20.483  45.478  51.759  1.00  0.00    +0.000 C 
ATOM     50  F7  UNL A   1      20.614  45.822  53.048  1.00  0.00    +0.000 F 
ATOM     51  C38 UNL A   1      19.983  46.394  50.846  1.00  0.00    +0.000 C 
ATOM     52  F8  UNL A   1      19.649  47.628  51.247  1.00  0.00    +0.000 F 
ATOM     53  C39 UNL A   1      19.822  46.029  49.517  1.00  0.00    +0.000 C 
ATOM     54  F9  UNL A   1      19.349  46.917  48.631  1.00  0.00    +0.000 F 
ATOM     55  C40 UNL A   1      20.150  44.741  49.103  1.00  0.00    +0.000 C 
ATOM     56  F10 UNL A   1      19.973  44.413  47.814  1.00  0.00    +0.000 F 
ENDBRANCH   45   46
BRANCH   60   61
ATOM     65  F12 UNL A   1      15.263  37.048  52.696  1.00  0.00    +0.000 F 
ATOM     66  C47 UNL A   1      14.594  37.017  50.432  1.00  0.00    +0.000 C 
ATOM     67  F13 UNL A   1      13.355  36.654  50.787  1.00  0.00    +0.000 F 
ATOM     68  C48 UNL A   1      14.914  37.179  49.092  1.00  0.00    +0.000 C 
ATOM     69  F14 UNL A   1      13.978  36.990  48.152  1.00  0.00    +0.000 F 
ATOM     70  C49 UNL A   1      16.208  37.541  48.720  1.00  0.00    +0.000 C 
ATOM     71  F15 UNL A   1      16.492  37.684  47.418  1.00  0.00    +0.000 F 
ATOM     61  C44 UNL A   1      17.199  37.770  49.685  1.00  0.00    +0.000 C 
ATOM     62  C45 UNL A   1      16.849  37.611  51.033  1.00  0.00    +0.000 C 
ATOM     63  F11 UNL A   1      17.770  37.800  51.990  1.00  0.00    +0.000 F 
ATOM     64  C46 UNL A   1      15.563  37.227  51.402  1.00  0.00    +0.000 C 
ENDBRANCH   60   61
TORSDOF 21
ENDMDL
MODEL 9
REMARK VINA RESULT:      -7.6     46.754     53.377
ROOT
ATOM     24  C20 UNL A   1       7.318   2.548  25.751  1.00  0.00    +0.000 C 
ATOM     25  C21 UNL A   1       6.547   3.659  25.096  1.00  0.00    +0.000 C 
ATOM     26  N3  UNL A   1       6.686   4.954  25.228  1.00  0.00    +0.000 N 
ATOM     27  C22 UNL A   1       5.758   5.523  24.366  1.00  0.00    +0.000 C 
ATOM     28  C23 UNL A   1       5.474   6.834  24.176  1.00  0.00    +0.000 C 
ATOM     40  C30 UNL A   1       6.116   7.912  24.880  1.00  0.00    +0.000 C 
ATOM     41  C31 UNL A   1       5.850   9.267  24.813  1.00  0.00    +0.000 C 
ATOM     42  C32 UNL A   1       6.758   9.934  25.645  1.00  0.00    +0.000 C 
ATOM     43  C33 UNL A   1       7.562   8.989  26.262  1.00  0.00    +0.000 C 
ATOM     44  N4  UNL A   1       7.159   7.753  25.782  1.00  0.00    +0.000 N 
ATOM     45  C34 UNL A   1       8.620   9.197  27.217  1.00  0.00    +0.000 C 
ATOM     57  C41 UNL A   1       9.353   8.213  27.794  1.00  0.00    +0.000 C 
ATOM     58  N5  UNL A   1       9.264   6.840  27.615  1.00  0.00    +0.000 N 
ATOM     59  C42 UNL A   1      10.189   6.316  28.380  1.00  0.00    +0.000 C 
ATOM     60  C43 UNL A   1      10.530   4.868  28.601  1.00  0.00    +0.000 C 
ATOM     72  C50 UNL A   1       9.814   3.919  27.969  1.00  0.00    +0.000 C 
ATOM     73  C51 UNL A   1      10.022   2.479  28.089  1.00  0.00    +0.000 C 
ATOM     74  C52 UNL A   1       9.151   1.843  27.289  1.00  0.00    +0.000 C 
ATOM     75  C53 UNL A   1       8.303   2.832  26.625  1.00  0.00    +0.000 C 
ATOM     76  N6  UNL A   1       8.763   4.036  27.094  1.00  0.00    +0.000 N 
ATOM     77  C54 UNL A   1      10.991   7.303  29.117  1.00  0.00    +0.000 C 
ATOM     78  C55 UNL A   1      10.416   8.441  28.751  1.00  0.00    +0.000 C 
ATOM     79  C56 UNL A   1       5.093   4.434  23.681  1.00  0.00    +0.000 C 
ATOM     80  C57 UNL A   1       5.498   3.261  24.145  1.00  0.00    +0.000 C 
ATOM    118  H25 UNL A   1       5.110   9.712  24.248  1.00  0.00    +0.000 H 
ATOM    119  H26 UNL A   1       6.818  10.955  25.776  1.00  0.00    +0.000 H 
ATOM    120  H27 UNL A   1       7.554   6.890  26.042  1.00  0.00    +0.000 H 
ATOM    121  H28 UNL A   1      10.725   2.023  28.691  1.00  0.00    +0.000 H 
ATOM    122  H29 UNL A   1       9.092   0.820  27.163  1.00  0.00    +0.000 H 
ATOM    123  H30 UNL A   1       8.378   4.902  26.826  1.00  0.00    +0.000 H 
ATOM    124  H31 UNL A   1      11.790   7.151  29.751  1.00  0.00    +0.000 H 
ATOM    125  H32 UNL A   1      10.692   9.371  29.104  1.00  0.00    +0.000 H 
ATOM    126  H33 UNL A   1       4.395   4.556  22.931  1.00  0.00    +0.000 H 
ATOM    127  H34 UNL A   1       5.166   2.315  23.901  1.00  0.00    +0.000 H 
ENDROOT
BRANCH   24   23
ATOM    129  H36 UNL A   1       5.527  -1.604  26.588  1.00  0.00    +0.000 H 
ATOM     81  C58 UNL A   1       6.283   0.333  26.242  1.00  0.00    +0.000 C 
ATOM     82  C59 UNL A   1       6.031  -0.998  25.922  1.00  0.00    +0.000 C 
ATOM     20  C16 UNL A   1       6.465  -1.513  24.697  1.00  0.00    +0.000 C 
ATOM     21  C17 UNL A   1       7.247  -0.730  23.843  1.00  0.00    +0.000 C 
ATOM    116  H23 UNL A   1       7.598  -1.123  22.956  1.00  0.00    +0.000 H 
ATOM     22  C18 UNL A   1       7.551   0.587  24.194  1.00  0.00    +0.000 C 
ATOM    117  H24 UNL A   1       8.147   1.159  23.575  1.00  0.00    +0.000 H 
ATOM     23  C19 UNL A   1       7.049   1.137  25.385  1.00  0.00    +0.000 C 
ATOM    128  H35 UNL A   1       5.903   0.732  27.115  1.00  0.00    +0.000 H 
BRANCH   20   18
ATOM     18  C15 UNL A   1       6.139  -2.901  24.295  1.00  0.00    +0.000 C 
ATOM     19  O2  UNL A   1       5.082  -3.138  23.728  1.00  0.00    +0.000 O 
BRANCH   18   17
ATOM     17  N2  UNL A   1       7.026  -3.917  24.560  1.00  0.00    +0.000 N 
ATOM    115  H22 UNL A   1       6.694  -4.624  25.159  1.00  0.00    +0.000 H 
BRANCH   17   16
ATOM    113  H20 UNL A   1       8.435  -4.995  23.502  1.00  0.00    +0.000 H 
ATOM    114  H21 UNL A   1       8.637  -3.243  23.477  1.00  0.00    +0.000 H 
ATOM     16  C14 UNL A   1       8.385  -4.093  24.074  1.00  0.00    +0.000 C 
BRANCH   16   15
ATOM    111  H18 UNL A   1       9.197  -5.079  25.767  1.00  0.00    +0.000 H 
ATOM     15  C13 UNL A   1       9.391  -4.180  25.220  1.00  0.00    +0.000 C 
ATOM    112  H19 UNL A   1      10.362  -4.162  24.772  1.00  0.00    +0.000 H 
BRANCH   15   14
ATOM    110  H17 UNL A   1       9.870  -3.325  27.074  1.00  0.00    +0.000 H 
ATOM    109  H16 UNL A   1       8.315  -2.769  26.383  1.00  0.00    +0.000 H 
ATOM     14  C12 UNL A   1       9.342  -3.005  26.200  1.00  0.00    +0.000 C 
BRANCH   14   13
ATOM    107  H14 UNL A   1      10.514  -1.936  24.786  1.00  0.00    +0.000 H 
ATOM    108  H15 UNL A   1       9.284  -0.976  25.664  1.00  0.00    +0.000 H 
ATOM     13  C11 UNL A   1      10.045  -1.727  25.725  1.00  0.00    +0.000 C 
BRANCH   13   12
ATOM    105  H12 UNL A   1      11.279  -0.145  26.442  1.00  0.00    +0.000 H 
ATOM    106  H13 UNL A   1      10.744  -1.311  27.674  1.00  0.00    +0.000 H 
ATOM     12  C10 UNL A   1      11.113  -1.175  26.679  1.00  0.00    +0.000 C 
BRANCH   12   11
ATOM     11  C9  UNL A   1      12.453  -1.909  26.597  1.00  0.00    +0.000 C 
ATOM    103  H10 UNL A   1      12.432  -2.753  27.255  1.00  0.00    +0.000 H 
ATOM    104  H11 UNL A   1      12.609  -2.232  25.589  1.00  0.00    +0.000 H 
BRANCH   11   10
ATOM     10  N1  UNL A   1      13.540  -1.029  26.982  1.00  0.00    +0.000 N 
ATOM    102  H9  UNL A   1      14.014  -1.303  27.801  1.00  0.00    +0.000 H 
BRANCH   10    8
ATOM      9  O1  UNL A   1      14.181   1.107  27.101  1.00  0.00    +0.000 O 
ATOM      8  C8  UNL A   1      14.016   0.104  26.408  1.00  0.00    +0.000 C 
BRANCH    8    7
ATOM    101  H8  UNL A   1      15.131  -0.240  24.594  1.00  0.00    +0.000 H 
ATOM      7  C7  UNL A   1      14.265   0.193  24.952  1.00  0.00    +0.000 C 
BRANCH    7    6
ATOM    100  H7  UNL A   1      13.511   1.816  23.965  1.00  0.00    +0.000 H 
ATOM      6  C6  UNL A   1      13.462   0.789  24.059  1.00  0.00    +0.000 C 
BRANCH    6    5
ATOM    130  H37 UNL A   1      11.498   1.787  22.564  1.00  0.00    +0.000 H 
ATOM      3  C3  UNL A   1      11.596  -2.045  22.359  1.00  0.00    +0.000 C 
ATOM      4  C4  UNL A   1      12.532  -1.347  23.136  1.00  0.00    +0.000 C 
ATOM      5  C5  UNL A   1      12.516   0.053  23.208  1.00  0.00    +0.000 C 
ATOM     99  H6  UNL A   1      13.245  -1.873  23.665  1.00  0.00    +0.000 H 
ATOM    136  H43 UNL A   1       9.954  -1.823  21.049  1.00  0.00    +0.000 H 
ATOM     83  C60 UNL A   1      11.527   0.757  22.511  1.00  0.00    +0.000 C 
ATOM     84  C61 UNL A   1      10.575   0.073  21.741  1.00  0.00    +0.000 C 
ATOM     93  C69 UNL A   1      10.630  -1.323  21.647  1.00  0.00    +0.000 C 
BRANCH    3    2
ATOM     97  H4  UNL A   1      12.603  -3.890  22.536  1.00  0.00    +0.000 H 
ATOM      2  C2  UNL A   1      11.611  -3.553  22.317  1.00  0.00    +0.000 C 
ATOM     98  H5  UNL A   1      10.905  -3.902  23.042  1.00  0.00    +0.000 H 
BRANCH    2    1
ATOM      1  C1  UNL A   1      11.194  -4.112  20.967  1.00  0.00    +0.000 C 
ATOM     94  H1  UNL A   1      11.864  -3.756  20.211  1.00  0.00    +0.000 H 
ATOM     95  H2  UNL A   1      10.198  -3.793  20.740  1.00  0.00    +0.000 H 
ATOM     96  H3  UNL A   1      11.227  -5.181  20.997  1.00  0.00    +0.000 H 
ENDBRANCH    2    1
ENDBRANCH    3    2
BRANCH   84   85
ATOM     85  C62 UNL A   1       9.538   0.868  21.024  1.00  0.00    +0.000 C 
ATOM     86  O3  UNL A   1       8.678   0.294  20.362  1.00  0.00    +0.000 O 
BRANCH   85   87
ATOM    131  H38 UNL A   1       8.449   2.368  22.931  1.00  0.00    +0.000 H 
ATOM    132  H39 UNL A   1       8.441   4.787  23.139  1.00  0.00    +0.000 H 
ATOM    133  H40 UNL A   1       9.474   6.157  21.424  1.00  0.00    +0.000 H 
ATOM    134  H41 UNL A   1      10.484   5.117  19.478  1.00  0.00    +0.000 H 
ATOM    135  H42 UNL A   1      10.498   2.697  19.265  1.00  0.00    +0.000 H 
ATOM     87  C63 UNL A   1       9.513   2.349  21.103  1.00  0.00    +0.000 C 
ATOM     88  C64 UNL A   1       8.896   2.951  22.205  1.00  0.00    +0.000 C 
ATOM     89  C65 UNL A   1       8.884   4.342  22.320  1.00  0.00    +0.000 C 
ATOM     90  C66 UNL A   1       9.473   5.130  21.330  1.00  0.00    +0.000 C 
ATOM     91  C67 UNL A   1      10.060   4.531  20.214  1.00  0.00    +0.000 C 
ATOM     92  C68 UNL A   1      10.075   3.140  20.094  1.00  0.00    +0.000 C 
ENDBRANCH   85   87
ENDBRANCH   84   85
ENDBRANCH    6    5
ENDBRANCH    7    6
ENDBRANCH    8    7
ENDBRANCH   10    8
ENDBRANCH   11   10
ENDBRANCH   12   11
ENDBRANCH   13   12
ENDBRANCH   14   13
ENDBRANCH   15   14
ENDBRANCH   16   15
ENDBRANCH   17   16
ENDBRANCH   18   17
ENDBRANCH   20   18
ENDBRANCH   24   23
BRANCH   28   29
ATOM     33  F2  UNL A   1       3.962   7.434  19.553  1.00  0.00    +0.000 F 
ATOM     34  C27 UNL A   1       2.411   7.793  21.297  1.00  0.00    +0.000 C 
ATOM     35  F3  UNL A   1       1.459   8.103  20.405  1.00  0.00    +0.000 F 
ATOM     36  C28 UNL A   1       2.130   7.829  22.654  1.00  0.00    +0.000 C 
ATOM     37  F4  UNL A   1       0.899   8.156  23.074  1.00  0.00    +0.000 F 
ATOM     38  C29 UNL A   1       3.125   7.533  23.582  1.00  0.00    +0.000 C 
ATOM     39  F5  UNL A   1       2.826   7.594  24.888  1.00  0.00    +0.000 F 
ATOM     29  C24 UNL A   1       4.415   7.172  23.167  1.00  0.00    +0.000 C 
ATOM     30  C25 UNL A   1       4.670   7.118  21.788  1.00  0.00    +0.000 C 
ATOM     31  F1  UNL A   1       5.891   6.791  21.339  1.00  0.00    +0.000 F 
ATOM     32  C26 UNL A   1       3.681   7.444  20.864  1.00  0.00    +0.000 C 
ENDBRANCH   28   29
BRANCH   45   46
ATOM     46  C35 UNL A   1       8.925  10.607  27.626  1.00  0.00    +0.000 C 
ATOM     47  C36 UNL A   1       8.269  11.215  28.707  1.00  0.00    +0.000 C 
ATOM     48  F6  UNL A   1       7.306  10.556  29.369  1.00  0.00    +0.000 F 
ATOM     49  C37 UNL A   1       8.575  12.519  29.085  1.00  0.00    +0.000 C 
ATOM     50  F7  UNL A   1       7.907  13.097  30.093  1.00  0.00    +0.000 F 
ATOM     51  C38 UNL A   1       9.561  13.227  28.413  1.00  0.00    +0.000 C 
ATOM     52  F8  UNL A   1       9.859  14.480  28.782  1.00  0.00    +0.000 F 
ATOM     53  C39 UNL A   1      10.234  12.638  27.352  1.00  0.00    +0.000 C 
ATOM     54  F9  UNL A   1      11.194  13.317  26.708  1.00  0.00    +0.000 F 
ATOM     55  C40 UNL A   1       9.911  11.343  26.954  1.00  0.00    +0.000 C 
ATOM     56  F10 UNL A   1      10.571  10.804  25.918  1.00  0.00    +0.000 F 
ENDBRANCH   45   46
BRANCH   60   61
ATOM     65  F12 UNL A   1      12.259   4.290  33.121  1.00  0.00    +0.000 F 
ATOM     66  C47 UNL A   1      13.654   3.699  31.310  1.00  0.00    +0.000 C 
ATOM     67  F13 UNL A   1      14.626   3.335  32.156  1.00  0.00    +0.000 F 
ATOM     68  C48 UNL A   1      13.854   3.605  29.940  1.00  0.00    +0.000 C 
ATOM     69  F14 UNL A   1      15.014   3.133  29.464  1.00  0.00    +0.000 F 
ATOM     70  C49 UNL A   1      12.850   3.999  29.058  1.00  0.00    +0.000 C 
ATOM     71  F15 UNL A   1      13.071   3.904  27.739  1.00  0.00    +0.000 F 
ATOM     61  C44 UNL A   1      11.617   4.472  29.531  1.00  0.00    +0.000 C 
ATOM     62  C45 UNL A   1      11.435   4.547  30.919  1.00  0.00    +0.000 C 
ATOM     63  F11 UNL A   1      10.279   5.012  31.416  1.00  0.00    +0.000 F 
ATOM     64  C46 UNL A   1      12.447   4.176  31.799  1.00  0.00    +0.000 C 
ENDBRANCH   60   61
TORSDOF 21
ENDMDL
MODEL 10
REMARK VINA RESULT:      -7.6     52.405     55.357
ROOT
ATOM     24  C20 UNL A   1       1.101   9.898  37.040  1.00  0.00    +0.000 C 
ATOM     25  C21 UNL A   1      -0.255   9.764  36.407  1.00  0.00    +0.000 C 
ATOM     26  N3  UNL A   1      -1.276  10.583  36.454  1.00  0.00    +0.000 N 
ATOM     27  C22 UNL A   1      -2.259  10.007  35.661  1.00  0.00    +0.000 C 
ATOM     28  C23 UNL A   1      -3.521  10.441  35.431  1.00  0.00    +0.000 C 
ATOM     40  C30 UNL A   1      -4.085  11.633  36.007  1.00  0.00    +0.000 C 
ATOM     41  C31 UNL A   1      -5.374  12.121  35.894  1.00  0.00    +0.000 C 
ATOM     42  C32 UNL A   1      -5.447  13.333  36.592  1.00  0.00    +0.000 C 
ATOM     43  C33 UNL A   1      -4.214  13.578  37.174  1.00  0.00    +0.000 C 
ATOM     44  N4  UNL A   1      -3.387  12.529  36.805  1.00  0.00    +0.000 N 
ATOM     45  C34 UNL A   1      -3.817  14.686  38.004  1.00  0.00    +0.000 C 
ATOM     57  C41 UNL A   1      -2.590  14.846  38.556  1.00  0.00    +0.000 C 
ATOM     58  N5  UNL A   1      -1.477  14.023  38.462  1.00  0.00    +0.000 N 
ATOM     59  C42 UNL A   1      -0.534  14.610  39.157  1.00  0.00    +0.000 C 
ATOM     60  C43 UNL A   1       0.875  14.154  39.419  1.00  0.00    +0.000 C 
ATOM     72  C50 UNL A   1       1.290  12.976  38.916  1.00  0.00    +0.000 C 
ATOM     73  C51 UNL A   1       2.621  12.401  39.092  1.00  0.00    +0.000 C 
ATOM     74  C52 UNL A   1       2.688  11.241  38.420  1.00  0.00    +0.000 C 
ATOM     75  C53 UNL A   1       1.393  10.976  37.792  1.00  0.00    +0.000 C 
ATOM     76  N6  UNL A   1       0.624  12.055  38.146  1.00  0.00    +0.000 N 
ATOM     77  C54 UNL A   1      -0.936  15.891  39.753  1.00  0.00    +0.000 C 
ATOM     78  C55 UNL A   1      -2.208  15.970  39.387  1.00  0.00    +0.000 C 
ATOM     79  C56 UNL A   1      -1.698   8.792  35.108  1.00  0.00    +0.000 C 
ATOM     80  C57 UNL A   1      -0.485   8.563  35.590  1.00  0.00    +0.000 C 
ATOM    118  H25 UNL A   1      -6.150  11.670  35.383  1.00  0.00    +0.000 H 
ATOM    119  H26 UNL A   1      -6.278  13.940  36.661  1.00  0.00    +0.000 H 
ATOM    120  H27 UNL A   1      -2.444  12.433  37.070  1.00  0.00    +0.000 H 
ATOM    121  H28 UNL A   1       3.386  12.819  39.643  1.00  0.00    +0.000 H 
ATOM    122  H29 UNL A   1       3.520  10.633  38.356  1.00  0.00    +0.000 H 
ATOM    123  H30 UNL A   1      -0.316  12.160  37.872  1.00  0.00    +0.000 H 
ATOM    124  H31 UNL A   1      -0.376  16.554  40.311  1.00  0.00    +0.000 H 
ATOM    125  H32 UNL A   1      -2.845  16.735  39.659  1.00  0.00    +0.000 H 
ATOM    126  H33 UNL A   1      -2.179   8.185  34.427  1.00  0.00    +0.000 H 
ATOM    127  H34 UNL A   1       0.136   7.754  35.434  1.00  0.00    +0.000 H 
ENDROOT
BRANCH   24   23
ATOM    129  H36 UNL A   1       4.741   8.306  34.723  1.00  0.00    +0.000 H 
ATOM     81  C58 UNL A   1       3.102   9.112  35.776  1.00  0.00    +0.000 C 
ATOM     82  C59 UNL A   1       4.085   8.164  35.508  1.00  0.00    +0.000 C 
ATOM     20  C16 UNL A   1       4.181   7.017  36.301  1.00  0.00    +0.000 C 
ATOM     21  C17 UNL A   1       3.226   6.765  37.290  1.00  0.00    +0.000 C 
ATOM    116  H23 UNL A   1       3.276   5.900  37.850  1.00  0.00    +0.000 H 
ATOM     22  C18 UNL A   1       2.203   7.689  37.517  1.00  0.00    +0.000 C 
ATOM    117  H24 UNL A   1       1.484   7.493  38.232  1.00  0.00    +0.000 H 
ATOM     23  C19 UNL A   1       2.149   8.882  36.780  1.00  0.00    +0.000 C 
ATOM    128  H35 UNL A   1       3.075   9.991  35.235  1.00  0.00    +0.000 H 
BRANCH   20   18
ATOM     18  C15 UNL A   1       5.267   6.033  36.090  1.00  0.00    +0.000 C 
ATOM     19  O2  UNL A   1       4.995   4.854  35.913  1.00  0.00    +0.000 O 
BRANCH   18   17
ATOM     17  N2  UNL A   1       6.577   6.447  36.094  1.00  0.00    +0.000 N 
ATOM    115  H22 UNL A   1       7.121   6.141  35.332  1.00  0.00    +0.000 H 
BRANCH   17   16
ATOM    113  H20 UNL A   1       8.325   7.164  36.929  1.00  0.00    +0.000 H 
ATOM    114  H21 UNL A   1       6.968   8.291  36.912  1.00  0.00    +0.000 H 
ATOM     16  C14 UNL A   1       7.271   7.277  37.066  1.00  0.00    +0.000 C 
BRANCH   16   15
ATOM    111  H18 UNL A   1       6.375   5.969  38.472  1.00  0.00    +0.000 H 
ATOM     15  C13 UNL A   1       6.916   6.891  38.500  1.00  0.00    +0.000 C 
ATOM    112  H19 UNL A   1       7.841   6.819  39.032  1.00  0.00    +0.000 H 
BRANCH   15   14
ATOM    110  H17 UNL A   1       6.562   8.103  40.174  1.00  0.00    +0.000 H 
ATOM    109  H16 UNL A   1       5.080   7.519  39.359  1.00  0.00    +0.000 H 
ATOM     14  C12 UNL A   1       6.064   7.923  39.245  1.00  0.00    +0.000 C 
BRANCH   14   13
ATOM    107  H14 UNL A   1       6.236   9.173  37.535  1.00  0.00    +0.000 H 
ATOM    108  H15 UNL A   1       4.918   9.587  38.674  1.00  0.00    +0.000 H 
ATOM     13  C11 UNL A   1       5.939   9.288  38.557  1.00  0.00    +0.000 C 
BRANCH   13   12
ATOM    105  H12 UNL A   1       6.145  11.027  39.772  1.00  0.00    +0.000 H 
ATOM    106  H13 UNL A   1       7.555   9.940  39.750  1.00  0.00    +0.000 H 
ATOM     12  C10 UNL A   1       6.785  10.410  39.175  1.00  0.00    +0.000 C 
BRANCH   12   11
ATOM     11  C9  UNL A   1       7.481  11.298  38.141  1.00  0.00    +0.000 C 
ATOM    103  H10 UNL A   1       8.052  10.684  37.477  1.00  0.00    +0.000 H 
ATOM    104  H11 UNL A   1       6.738  11.841  37.595  1.00  0.00    +0.000 H 
BRANCH   11   10
ATOM     10  N1  UNL A   1       8.366  12.244  38.796  1.00  0.00    +0.000 N 
ATOM    102  H9  UNL A   1       9.280  11.909  38.944  1.00  0.00    +0.000 H 
BRANCH   10    8
ATOM      9  O1  UNL A   1       8.586  14.457  38.588  1.00  0.00    +0.000 O 
ATOM      8  C8  UNL A   1       8.150  13.508  39.239  1.00  0.00    +0.000 C 
BRANCH    8    7
ATOM    101  H8  UNL A   1       8.066  14.104  41.310  1.00  0.00    +0.000 H 
ATOM      7  C7  UNL A   1       7.476  13.776  40.529  1.00  0.00    +0.000 C 
BRANCH    7    6
ATOM    100  H7  UNL A   1       5.523  13.573  39.962  1.00  0.00    +0.000 H 
ATOM      6  C6  UNL A   1       6.165  13.630  40.768  1.00  0.00    +0.000 C 
BRANCH    6    5
ATOM    130  H37 UNL A   1       4.043  12.230  41.562  1.00  0.00    +0.000 H 
ATOM      3  C3  UNL A   1       5.553  14.241  44.464  1.00  0.00    +0.000 C 
ATOM      4  C4  UNL A   1       6.129  14.288  43.186  1.00  0.00    +0.000 C 
ATOM      5  C5  UNL A   1       5.597  13.547  42.121  1.00  0.00    +0.000 C 
ATOM     99  H6  UNL A   1       6.961  14.878  43.026  1.00  0.00    +0.000 H 
ATOM    136  H43 UNL A   1       4.007  13.373  45.613  1.00  0.00    +0.000 H 
ATOM     83  C60 UNL A   1       4.451  12.772  42.340  1.00  0.00    +0.000 C 
ATOM     84  C61 UNL A   1       3.854  12.726  43.608  1.00  0.00    +0.000 C 
ATOM     93  C69 UNL A   1       4.423  13.439  44.670  1.00  0.00    +0.000 C 
BRANCH    3    2
ATOM     97  H4  UNL A   1       5.782  14.660  46.519  1.00  0.00    +0.000 H 
ATOM      2  C2  UNL A   1       6.123  15.067  45.590  1.00  0.00    +0.000 C 
ATOM     98  H5  UNL A   1       7.189  15.029  45.508  1.00  0.00    +0.000 H 
BRANCH    2    1
ATOM      1  C1  UNL A   1       5.711  16.528  45.518  1.00  0.00    +0.000 C 
ATOM     94  H1  UNL A   1       5.974  17.018  46.434  1.00  0.00    +0.000 H 
ATOM     95  H2  UNL A   1       4.654  16.594  45.368  1.00  0.00    +0.000 H 
ATOM     96  H3  UNL A   1       6.217  17.002  44.703  1.00  0.00    +0.000 H 
ENDBRANCH    2    1
ENDBRANCH    3    2
BRANCH   84   85
ATOM     85  C62 UNL A   1       2.633  11.892  43.787  1.00  0.00    +0.000 C 
ATOM     86  O3  UNL A   1       1.931  12.042  44.784  1.00  0.00    +0.000 O 
BRANCH   85   87
ATOM    131  H38 UNL A   1       0.300  11.701  42.526  1.00  0.00    +0.000 H 
ATOM    132  H39 UNL A   1      -0.375  10.115  40.816  1.00  0.00    +0.000 H 
ATOM    133  H40 UNL A   1       1.156   8.374  40.101  1.00  0.00    +0.000 H 
ATOM    134  H41 UNL A   1       3.351   8.190  41.118  1.00  0.00    +0.000 H 
ATOM    135  H42 UNL A   1       4.034   9.776  42.828  1.00  0.00    +0.000 H 
ATOM     87  C63 UNL A   1       2.234  10.884  42.775  1.00  0.00    +0.000 C 
ATOM     88  C64 UNL A   1       0.954  10.965  42.216  1.00  0.00    +0.000 C 
ATOM     89  C65 UNL A   1       0.563  10.048  41.239  1.00  0.00    +0.000 C 
ATOM     90  C66 UNL A   1       1.443   9.044  40.832  1.00  0.00    +0.000 C 
ATOM     91  C67 UNL A   1       2.708   8.942  41.412  1.00  0.00    +0.000 C 
ATOM     92  C68 UNL A   1       3.104   9.857  42.390  1.00  0.00    +0.000 C 
ENDBRANCH   85   87
ENDBRANCH   84   85
ENDBRANCH    6    5
ENDBRANCH    7    6
ENDBRANCH    8    7
ENDBRANCH   10    8
ENDBRANCH   11   10
ENDBRANCH   12   11
ENDBRANCH   13   12
ENDBRANCH   14   13
ENDBRANCH   15   14
ENDBRANCH   16   15
ENDBRANCH   17   16
ENDBRANCH   18   17
ENDBRANCH   20   18
ENDBRANCH   24   23
BRANCH   28   29
ATOM     33  F2  UNL A   1      -5.336   9.396  31.000  1.00  0.00    +0.000 F 
ATOM     34  C27 UNL A   1      -5.982   8.044  32.825  1.00  0.00    +0.000 C 
ATOM     35  F3  UNL A   1      -6.757   7.303  32.021  1.00  0.00    +0.000 F 
ATOM     36  C28 UNL A   1      -5.915   7.759  34.181  1.00  0.00    +0.000 C 
ATOM     37  F4  UNL A   1      -6.612   6.729  34.683  1.00  0.00    +0.000 F 
ATOM     38  C29 UNL A   1      -5.131   8.543  35.022  1.00  0.00    +0.000 C 
ATOM     39  F5  UNL A   1      -5.100   8.253  36.331  1.00  0.00    +0.000 F 
ATOM     29  C24 UNL A   1      -4.380   9.616  34.517  1.00  0.00    +0.000 C 
ATOM     30  C25 UNL A   1      -4.444   9.871  33.139  1.00  0.00    +0.000 C 
ATOM     31  F1  UNL A   1      -3.755  10.892  32.608  1.00  0.00    +0.000 F 
ATOM     32  C26 UNL A   1      -5.252   9.102  32.305  1.00  0.00    +0.000 C 
ENDBRANCH   28   29
BRANCH   45   46
ATOM     46  C35 UNL A   1      -4.845  15.737  38.303  1.00  0.00    +0.000 C 
ATOM     47  C36 UNL A   1      -5.519  15.774  39.533  1.00  0.00    +0.000 C 
ATOM     48  F6  UNL A   1      -5.294  14.827  40.455  1.00  0.00    +0.000 F 
ATOM     49  C37 UNL A   1      -6.458  16.766  39.802  1.00  0.00    +0.000 C 
ATOM     50  F7  UNL A   1      -7.123  16.759  40.966  1.00  0.00    +0.000 F 
ATOM     51  C38 UNL A   1      -6.717  17.754  38.864  1.00  0.00    +0.000 C 
ATOM     52  F8  UNL A   1      -7.616  18.712  39.127  1.00  0.00    +0.000 F 
ATOM     53  C39 UNL A   1      -6.048  17.746  37.648  1.00  0.00    +0.000 C 
ATOM     54  F9  UNL A   1      -6.289  18.706  36.744  1.00  0.00    +0.000 F 
ATOM     55  C40 UNL A   1      -5.128  16.740  37.365  1.00  0.00    +0.000 C 
ATOM     56  F10 UNL A   1      -4.505  16.751  36.177  1.00  0.00    +0.000 F 
ENDBRANCH   45   46
BRANCH   60   61
ATOM     65  F12 UNL A   1       4.675  17.174  39.852  1.00  0.00    +0.000 F 
ATOM     66  C47 UNL A   1       3.536  16.527  41.817  1.00  0.00    +0.000 C 
ATOM     67  F13 UNL A   1       4.367  17.267  42.562  1.00  0.00    +0.000 F 
ATOM     68  C48 UNL A   1       2.526  15.794  42.423  1.00  0.00    +0.000 C 
ATOM     69  F14 UNL A   1       2.370  15.841  43.753  1.00  0.00    +0.000 F 
ATOM     70  C49 UNL A   1       1.671  15.010  41.650  1.00  0.00    +0.000 C 
ATOM     71  F15 UNL A   1       0.707  14.306  42.262  1.00  0.00    +0.000 F 
ATOM     61  C44 UNL A   1       1.797  14.963  40.254  1.00  0.00    +0.000 C 
ATOM     62  C45 UNL A   1       2.817  15.721  39.665  1.00  0.00    +0.000 C 
ATOM     63  F11 UNL A   1       2.988  15.692  38.335  1.00  0.00    +0.000 F 
ATOM     64  C46 UNL A   1       3.686  16.486  40.439  1.00  0.00    +0.000 C 
ENDBRANCH   60   61
TORSDOF 21
ENDMDL
