MODEL 1
REMARK VINA RESULT:      -7.7      0.000      0.000
ROOT
ATOM    129  H39 UNL A   1      22.109  37.840  47.575  1.00  0.00    +0.000 H 
ATOM    130  H40 UNL A   1      19.084  33.825  47.446  1.00  0.00    +0.000 H 
ATOM    131  H41 UNL A   1      17.330  35.268  48.627  1.00  0.00    +0.000 H 
ATOM    132  H42 UNL A   1      23.768  42.974  48.999  1.00  0.00    +0.000 H 
ATOM    133  H43 UNL A   1      25.397  41.681  47.506  1.00  0.00    +0.000 H 
ATOM     31  C26 UNL A   1      24.562  39.017  46.936  1.00  0.00    +0.000 C 
ATOM     32  C27 UNL A   1      23.807  40.074  47.690  1.00  0.00    +0.000 C 
ATOM     33  N3  UNL A   1      22.620  40.010  48.238  1.00  0.00    +0.000 N 
ATOM     34  C28 UNL A   1      22.412  41.249  48.830  1.00  0.00    +0.000 C 
ATOM     35  C29 UNL A   1      21.308  41.702  49.469  1.00  0.00    +0.000 C 
ATOM     47  C36 UNL A   1      20.107  40.934  49.659  1.00  0.00    +0.000 C 
ATOM     48  C37 UNL A   1      18.923  41.319  50.263  1.00  0.00    +0.000 C 
ATOM     49  C38 UNL A   1      18.046  40.230  50.240  1.00  0.00    +0.000 C 
ATOM     50  C39 UNL A   1      18.670  39.179  49.587  1.00  0.00    +0.000 C 
ATOM     51  N4  UNL A   1      19.935  39.623  49.241  1.00  0.00    +0.000 N 
ATOM     52  C40 UNL A   1      18.150  37.866  49.304  1.00  0.00    +0.000 C 
ATOM     64  C47 UNL A   1      18.818  36.890  48.641  1.00  0.00    +0.000 C 
ATOM     65  N5  UNL A   1      20.097  36.921  48.103  1.00  0.00    +0.000 N 
ATOM     66  C48 UNL A   1      20.295  35.737  47.577  1.00  0.00    +0.000 C 
ATOM     67  C49 UNL A   1      21.500  35.217  46.843  1.00  0.00    +0.000 C 
ATOM     79  C56 UNL A   1      22.568  36.020  46.674  1.00  0.00    +0.000 C 
ATOM     80  C57 UNL A   1      23.801  35.657  45.982  1.00  0.00    +0.000 C 
ATOM     81  C58 UNL A   1      24.652  36.695  46.028  1.00  0.00    +0.000 C 
ATOM     82  C59 UNL A   1      24.008  37.809  46.725  1.00  0.00    +0.000 C 
ATOM     83  N6  UNL A   1      22.777  37.315  47.079  1.00  0.00    +0.000 N 
ATOM     84  C60 UNL A   1      19.166  34.810  47.741  1.00  0.00    +0.000 C 
ATOM     85  C61 UNL A   1      18.280  35.573  48.368  1.00  0.00    +0.000 C 
ATOM     86  C62 UNL A   1      23.612  42.029  48.617  1.00  0.00    +0.000 C 
ATOM     87  C63 UNL A   1      24.483  41.368  47.869  1.00  0.00    +0.000 C 
ATOM    124  H34 UNL A   1      18.721  42.249  50.661  1.00  0.00    +0.000 H 
ATOM    125  H35 UNL A   1      17.096  40.212  50.642  1.00  0.00    +0.000 H 
ATOM    126  H36 UNL A   1      20.613  39.087  48.769  1.00  0.00    +0.000 H 
ATOM    127  H37 UNL A   1      23.989  34.748  45.530  1.00  0.00    +0.000 H 
ATOM    128  H38 UNL A   1      25.606  36.706  45.636  1.00  0.00    +0.000 H 
ENDROOT
BRANCH   31   30
ATOM    134  H44 UNL A   1      25.358  40.786  45.090  1.00  0.00    +0.000 H 
ATOM    135  H45 UNL A   1      27.590  41.167  44.223  1.00  0.00    +0.000 H 
ATOM    123  H33 UNL A   1      26.883  37.836  47.684  1.00  0.00    +0.000 H 
ATOM     88  C64 UNL A   1      26.157  40.254  45.470  1.00  0.00    +0.000 C 
ATOM     89  C65 UNL A   1      27.443  40.502  44.997  1.00  0.00    +0.000 C 
ATOM    122  H32 UNL A   1      29.136  38.354  46.944  1.00  0.00    +0.000 H 
ATOM     27  C22 UNL A   1      28.535  39.847  45.574  1.00  0.00    +0.000 C 
ATOM     28  C23 UNL A   1      28.332  38.864  46.547  1.00  0.00    +0.000 C 
ATOM     29  C24 UNL A   1      27.036  38.576  46.981  1.00  0.00    +0.000 C 
ATOM     30  C25 UNL A   1      25.942  39.286  46.463  1.00  0.00    +0.000 C 
BRANCH   27   25
ATOM     25  C21 UNL A   1      29.918  40.152  45.151  1.00  0.00    +0.000 C 
ATOM     26  O3  UNL A   1      30.475  39.434  44.325  1.00  0.00    +0.000 O 
BRANCH   25   24
ATOM    121  H31 UNL A   1      31.314  41.588  45.138  1.00  0.00    +0.000 H 
ATOM     24  N2  UNL A   1      30.579  41.228  45.687  1.00  0.00    +0.000 N 
BRANCH   24   23
ATOM    119  H29 UNL A   1      29.842  41.245  47.613  1.00  0.00    +0.000 H 
ATOM     23  C20 UNL A   1      30.350  41.912  46.948  1.00  0.00    +0.000 C 
ATOM    120  H30 UNL A   1      31.300  42.205  47.340  1.00  0.00    +0.000 H 
BRANCH   23   22
ATOM    118  H28 UNL A   1      29.314  43.262  45.727  1.00  0.00    +0.000 H 
ATOM    117  H27 UNL A   1      30.054  43.996  47.179  1.00  0.00    +0.000 H 
ATOM     22  C19 UNL A   1      29.506  43.171  46.776  1.00  0.00    +0.000 C 
BRANCH   22   21
ATOM    115  H25 UNL A   1      27.964  44.085  47.911  1.00  0.00    +0.000 H 
ATOM    116  H26 UNL A   1      27.432  42.882  46.693  1.00  0.00    +0.000 H 
ATOM     21  C18 UNL A   1      28.136  43.130  47.460  1.00  0.00    +0.000 C 
BRANCH   21   20
ATOM    113  H23 UNL A   1      27.052  41.542  48.361  1.00  0.00    +0.000 H 
ATOM    114  H24 UNL A   1      28.837  41.433  48.476  1.00  0.00    +0.000 H 
ATOM     20  C17 UNL A   1      27.971  42.059  48.545  1.00  0.00    +0.000 C 
BRANCH   20   19
ATOM     19  C16 UNL A   1      27.940  42.584  49.983  1.00  0.00    +0.000 C 
ATOM    111  H21 UNL A   1      28.085  41.756  50.645  1.00  0.00    +0.000 H 
ATOM    112  H22 UNL A   1      28.716  43.317  50.059  1.00  0.00    +0.000 H 
BRANCH   19   18
ATOM     18  C15 UNL A   1      26.638  43.282  50.367  1.00  0.00    +0.000 C 
ATOM    109  H19 UNL A   1      26.869  44.166  50.925  1.00  0.00    +0.000 H 
ATOM    110  H20 UNL A   1      26.111  43.526  49.467  1.00  0.00    +0.000 H 
BRANCH   18   17
ATOM     17  N1  UNL A   1      25.788  42.425  51.172  1.00  0.00    +0.000 N 
ATOM    108  H18 UNL A   1      24.824  42.553  51.016  1.00  0.00    +0.000 H 
BRANCH   17   15
ATOM     15  C14 UNL A   1      26.081  41.469  52.106  1.00  0.00    +0.000 C 
ATOM     16  O2  UNL A   1      26.655  41.868  53.124  1.00  0.00    +0.000 O 
BRANCH   15   13
ATOM      2  C2  UNL A   1      21.840  37.148  51.479  1.00  0.00    +0.000 C 
ATOM      3  C3  UNL A   1      22.426  38.388  51.839  1.00  0.00    +0.000 C 
ATOM      5  C5  UNL A   1      23.756  38.658  51.465  1.00  0.00    +0.000 C 
ATOM      6  C6  UNL A   1      24.493  37.741  50.695  1.00  0.00    +0.000 C 
ATOM      7  C7  UNL A   1      23.933  36.487  50.373  1.00  0.00    +0.000 C 
ATOM    101  H11 UNL A   1      25.987  37.866  49.208  1.00  0.00    +0.000 H 
ATOM      9  C9  UNL A   1      22.617  36.211  50.775  1.00  0.00    +0.000 C 
ATOM    102  H12 UNL A   1      26.578  37.492  50.823  1.00  0.00    +0.000 H 
ATOM     11  C10 UNL A   1      25.891  38.080  50.252  1.00  0.00    +0.000 C 
ATOM     12  C11 UNL A   1      26.202  39.543  50.487  1.00  0.00    +0.000 C 
ATOM     13  C12 UNL A   1      25.729  39.970  51.878  1.00  0.00    +0.000 C 
ATOM    103  H13 UNL A   1      25.701  40.133  49.748  1.00  0.00    +0.000 H 
ATOM    104  H14 UNL A   1      27.260  39.689  50.419  1.00  0.00    +0.000 H 
ATOM     90  O4  UNL A   1      24.286  39.856  51.890  1.00  0.00    +0.000 O 
BRANCH    2    1
ATOM      1  C1  UNL A   1      20.402  36.880  51.847  1.00  0.00    +0.000 C 
ATOM     91  H1  UNL A   1      20.236  37.159  52.866  1.00  0.00    +0.000 H 
ATOM     92  H2  UNL A   1      20.189  35.840  51.722  1.00  0.00    +0.000 H 
ATOM     93  H3  UNL A   1      19.759  37.454  51.212  1.00  0.00    +0.000 H 
ENDBRANCH    2    1
BRANCH    3    4
ATOM      4  C4  UNL A   1      21.638  39.401  52.634  1.00  0.00    +0.000 C 
ATOM     94  H4  UNL A   1      21.248  40.148  51.974  1.00  0.00    +0.000 H 
ATOM     95  H5  UNL A   1      22.277  39.864  53.357  1.00  0.00    +0.000 H 
ATOM     96  H6  UNL A   1      20.829  38.912  53.135  1.00  0.00    +0.000 H 
ENDBRANCH    3    4
BRANCH    7    8
ATOM     97  H7  UNL A   1      25.632  35.237  50.158  1.00  0.00    +0.000 H 
ATOM     98  H8  UNL A   1      25.008  35.869  48.653  1.00  0.00    +0.000 H 
ATOM     99  H9  UNL A   1      24.164  34.580  49.476  1.00  0.00    +0.000 H 
ATOM      8  C8  UNL A   1      24.743  35.469  49.610  1.00  0.00    +0.000 C 
ENDBRANCH    7    8
BRANCH    9   10
ATOM     10  O1  UNL A   1      22.119  34.978  50.446  1.00  0.00    +0.000 O 
ATOM    100  H10 UNL A   1      22.331  34.232  50.973  1.00  0.00    +0.000 H 
ENDBRANCH    9   10
BRANCH   13   14
ATOM    105  H15 UNL A   1      26.030  38.129  52.947  1.00  0.00    +0.000 H 
ATOM    106  H16 UNL A   1      25.777  39.515  53.979  1.00  0.00    +0.000 H 
ATOM    107  H17 UNL A   1      27.311  39.297  53.171  1.00  0.00    +0.000 H 
ATOM     14  C13 UNL A   1      26.252  39.166  53.086  1.00  0.00    +0.000 C 
ENDBRANCH   13   14
ENDBRANCH   15   13
ENDBRANCH   17   15
ENDBRANCH   18   17
ENDBRANCH   19   18
ENDBRANCH   20   19
ENDBRANCH   21   20
ENDBRANCH   22   21
ENDBRANCH   23   22
ENDBRANCH   24   23
ENDBRANCH   25   24
ENDBRANCH   27   25
ENDBRANCH   31   30
BRANCH   35   36
ATOM     36  C30 UNL A   1      21.343  43.103  50.003  1.00  0.00    +0.000 C 
ATOM     37  C31 UNL A   1      21.930  43.395  51.244  1.00  0.00    +0.000 C 
ATOM     38  F1  UNL A   1      22.422  42.407  52.006  1.00  0.00    +0.000 F 
ATOM     39  C32 UNL A   1      21.985  44.703  51.720  1.00  0.00    +0.000 C 
ATOM     40  F2  UNL A   1      22.516  44.952  52.925  1.00  0.00    +0.000 F 
ATOM     41  C33 UNL A   1      21.483  45.743  50.955  1.00  0.00    +0.000 C 
ATOM     42  F3  UNL A   1      21.545  47.002  51.410  1.00  0.00    +0.000 F 
ATOM     43  C34 UNL A   1      20.911  45.479  49.719  1.00  0.00    +0.000 C 
ATOM     44  F4  UNL A   1      20.435  46.485  48.973  1.00  0.00    +0.000 F 
ATOM     45  C35 UNL A   1      20.831  44.169  49.250  1.00  0.00    +0.000 C 
ATOM     46  F5  UNL A   1      20.263  43.944  48.057  1.00  0.00    +0.000 F 
ENDBRANCH   35   36
BRANCH   52   53
ATOM     53  C41 UNL A   1      16.758  37.559  49.766  1.00  0.00    +0.000 C 
ATOM     54  C42 UNL A   1      16.445  37.471  51.130  1.00  0.00    +0.000 C 
ATOM     55  F6  UNL A   1      17.412  37.582  52.053  1.00  0.00    +0.000 F 
ATOM     56  C43 UNL A   1      15.136  37.246  51.549  1.00  0.00    +0.000 C 
ATOM     57  F7  UNL A   1      14.864  37.136  52.857  1.00  0.00    +0.000 F 
ATOM     58  C44 UNL A   1      14.116  37.130  50.616  1.00  0.00    +0.000 C 
ATOM     59  F8  UNL A   1      12.855  36.926  51.022  1.00  0.00    +0.000 F 
ATOM     60  C45 UNL A   1      14.404  37.220  49.262  1.00  0.00    +0.000 C 
ATOM     61  F9  UNL A   1      13.418  37.120  48.361  1.00  0.00    +0.000 F 
ATOM     62  C46 UNL A   1      15.714  37.422  48.839  1.00  0.00    +0.000 C 
ATOM     63  F10 UNL A   1      15.963  37.504  47.524  1.00  0.00    +0.000 F 
ENDBRANCH   52   53
BRANCH   67   68
ATOM     68  C50 UNL A   1      21.514  33.847  46.273  1.00  0.00    +0.000 C 
ATOM     69  C51 UNL A   1      21.005  33.602  44.990  1.00  0.00    +0.000 C 
ATOM     70  F11 UNL A   1      20.460  34.605  44.285  1.00  0.00    +0.000 F 
ATOM     71  C52 UNL A   1      21.027  32.323  44.439  1.00  0.00    +0.000 C 
ATOM     72  F12 UNL A   1      20.509  32.111  43.223  1.00  0.00    +0.000 F 
ATOM     73  C53 UNL A   1      21.580  31.269  45.151  1.00  0.00    +0.000 C 
ATOM     74  F13 UNL A   1      21.611  30.040  44.616  1.00  0.00    +0.000 F 
ATOM     75  C54 UNL A   1      22.096  31.488  46.419  1.00  0.00    +0.000 C 
ATOM     76  F14 UNL A   1      22.641  30.474  47.105  1.00  0.00    +0.000 F 
ATOM     77  C55 UNL A   1      22.052  32.763  46.981  1.00  0.00    +0.000 C 
ATOM     78  F15 UNL A   1      22.556  32.947  48.210  1.00  0.00    +0.000 F 
ENDBRANCH   67   68
TORSDOF 20
ENDMDL
MODEL 2
REMARK VINA RESULT:      -7.7     45.249     48.916
ROOT
ATOM    129  H39 UNL A   1      14.253  52.223   2.880  1.00  0.00    +0.000 H 
ATOM    130  H40 UNL A   1      15.177  57.096   3.706  1.00  0.00    +0.000 H 
ATOM    131  H41 UNL A   1      16.857  56.973   1.778  1.00  0.00    +0.000 H 
ATOM    132  H42 UNL A   1      14.991  47.165   0.640  1.00  0.00    +0.000 H 
ATOM    133  H43 UNL A   1      13.056  47.343   2.308  1.00  0.00    +0.000 H 
ATOM     31  C26 UNL A   1      12.824  49.908   3.524  1.00  0.00    +0.000 C 
ATOM     32  C27 UNL A   1      13.774  49.491   2.439  1.00  0.00    +0.000 C 
ATOM     33  N3  UNL A   1      14.685  50.197   1.820  1.00  0.00    +0.000 N 
ATOM     34  C28 UNL A   1      15.299  49.325   0.932  1.00  0.00    +0.000 C 
ATOM     35  C29 UNL A   1      16.264  49.591   0.020  1.00  0.00    +0.000 C 
ATOM     47  C36 UNL A   1      16.849  50.888  -0.187  1.00  0.00    +0.000 C 
ATOM     48  C37 UNL A   1      17.807  51.265  -1.111  1.00  0.00    +0.000 C 
ATOM     49  C38 UNL A   1      18.089  52.622  -0.922  1.00  0.00    +0.000 C 
ATOM     50  C39 UNL A   1      17.277  53.100   0.095  1.00  0.00    +0.000 C 
ATOM     51  N4  UNL A   1      16.526  52.024   0.540  1.00  0.00    +0.000 N 
ATOM     52  C40 UNL A   1      17.196  54.437   0.623  1.00  0.00    +0.000 C 
ATOM     64  C47 UNL A   1      16.360  54.835   1.612  1.00  0.00    +0.000 C 
ATOM     65  N5  UNL A   1      15.427  54.087   2.318  1.00  0.00    +0.000 N 
ATOM     66  C48 UNL A   1      14.878  54.912   3.175  1.00  0.00    +0.000 C 
ATOM     67  C49 UNL A   1      13.792  54.647   4.181  1.00  0.00    +0.000 C 
ATOM     79  C56 UNL A   1      13.269  53.410   4.279  1.00  0.00    +0.000 C 
ATOM     80  C57 UNL A   1      12.212  53.007   5.200  1.00  0.00    +0.000 C 
ATOM     81  C58 UNL A   1      11.962  51.697   5.035  1.00  0.00    +0.000 C 
ATOM     82  C59 UNL A   1      12.821  51.179   3.971  1.00  0.00    +0.000 C 
ATOM     83  N6  UNL A   1      13.568  52.264   3.585  1.00  0.00    +0.000 N 
ATOM     84  C60 UNL A   1      15.417  56.279   3.124  1.00  0.00    +0.000 C 
ATOM     85  C61 UNL A   1      16.294  56.185   2.133  1.00  0.00    +0.000 C 
ATOM     86  C62 UNL A   1      14.692  48.025   1.125  1.00  0.00    +0.000 C 
ATOM     87  C63 UNL A   1      13.705  48.086   2.005  1.00  0.00    +0.000 C 
ATOM    124  H34 UNL A   1      18.240  50.651  -1.819  1.00  0.00    +0.000 H 
ATOM    125  H35 UNL A   1      18.783  53.174  -1.449  1.00  0.00    +0.000 H 
ATOM    126  H36 UNL A   1      15.861  52.061   1.266  1.00  0.00    +0.000 H 
ATOM    127  H37 UNL A   1      11.733  53.627   5.871  1.00  0.00    +0.000 H 
ATOM    128  H38 UNL A   1      11.276  51.146   5.572  1.00  0.00    +0.000 H 
ENDROOT
BRANCH   31   30
ATOM    134  H44 UNL A   1      13.362  48.193   5.509  1.00  0.00    +0.000 H 
ATOM    135  H45 UNL A   1      11.931  46.483   6.461  1.00  0.00    +0.000 H 
ATOM    123  H33 UNL A   1      10.245  49.342   2.917  1.00  0.00    +0.000 H 
ATOM     88  C64 UNL A   1      12.392  48.087   5.174  1.00  0.00    +0.000 C 
ATOM     89  C65 UNL A   1      11.560  47.129   5.748  1.00  0.00    +0.000 C 
ATOM    122  H32 UNL A   1       8.763  47.754   4.000  1.00  0.00    +0.000 H 
ATOM     27  C22 UNL A   1      10.221  47.045   5.356  1.00  0.00    +0.000 C 
ATOM     28  C23 UNL A   1       9.742  47.845   4.314  1.00  0.00    +0.000 C 
ATOM     29  C24 UNL A   1      10.592  48.766   3.700  1.00  0.00    +0.000 C 
ATOM     30  C25 UNL A   1      11.916  48.911   4.142  1.00  0.00    +0.000 C 
BRANCH   27   25
ATOM     25  C21 UNL A   1       9.293  46.097   6.008  1.00  0.00    +0.000 C 
ATOM     26  O3  UNL A   1       9.548  44.895   6.001  1.00  0.00    +0.000 O 
BRANCH   25   24
ATOM    121  H31 UNL A   1       7.402  46.755   6.000  1.00  0.00    +0.000 H 
ATOM     24  N2  UNL A   1       8.149  46.556   6.610  1.00  0.00    +0.000 N 
BRANCH   24   23
ATOM    119  H29 UNL A   1       7.224  47.629   8.109  1.00  0.00    +0.000 H 
ATOM     23  C20 UNL A   1       7.884  46.792   8.018  1.00  0.00    +0.000 C 
ATOM    120  H30 UNL A   1       7.446  45.905   8.423  1.00  0.00    +0.000 H 
BRANCH   23   22
ATOM    118  H28 UNL A   1       9.973  46.823   8.161  1.00  0.00    +0.000 H 
ATOM    117  H27 UNL A   1       9.130  46.513   9.708  1.00  0.00    +0.000 H 
ATOM     22  C19 UNL A   1       9.158  47.085   8.804  1.00  0.00    +0.000 C 
BRANCH   22   21
ATOM    115  H25 UNL A   1       8.426  48.945   9.514  1.00  0.00    +0.000 H 
ATOM    116  H26 UNL A   1      10.128  48.564   9.928  1.00  0.00    +0.000 H 
ATOM     21  C18 UNL A   1       9.364  48.555   9.179  1.00  0.00    +0.000 C 
BRANCH   21   20
ATOM    113  H23 UNL A   1       9.967  48.863   7.166  1.00  0.00    +0.000 H 
ATOM    114  H24 UNL A   1       9.158  50.250   7.958  1.00  0.00    +0.000 H 
ATOM     20  C17 UNL A   1       9.873  49.460   8.049  1.00  0.00    +0.000 C 
BRANCH   20   19
ATOM     19  C16 UNL A   1      11.222  50.135   8.310  1.00  0.00    +0.000 C 
ATOM    111  H21 UNL A   1      11.991  49.521   7.892  1.00  0.00    +0.000 H 
ATOM    112  H22 UNL A   1      11.172  51.104   7.859  1.00  0.00    +0.000 H 
BRANCH   19   18
ATOM     18  C15 UNL A   1      11.537  50.356   9.788  1.00  0.00    +0.000 C 
ATOM    109  H19 UNL A   1      10.657  50.712  10.282  1.00  0.00    +0.000 H 
ATOM    110  H20 UNL A   1      11.859  49.423  10.204  1.00  0.00    +0.000 H 
BRANCH   18   17
ATOM     17  N1  UNL A   1      12.603  51.324   9.970  1.00  0.00    +0.000 N 
ATOM    108  H18 UNL A   1      12.301  52.261   9.965  1.00  0.00    +0.000 H 
BRANCH   17   15
ATOM     15  C14 UNL A   1      13.951  51.171  10.149  1.00  0.00    +0.000 C 
ATOM     16  O2  UNL A   1      14.340  51.147  11.321  1.00  0.00    +0.000 O 
BRANCH   15   13
ATOM      2  C2  UNL A   1      16.005  47.993   5.381  1.00  0.00    +0.000 C 
ATOM      3  C3  UNL A   1      15.364  48.265   6.616  1.00  0.00    +0.000 C 
ATOM      5  C5  UNL A   1      15.261  49.596   7.064  1.00  0.00    +0.000 C 
ATOM      6  C6  UNL A   1      15.735  50.663   6.279  1.00  0.00    +0.000 C 
ATOM      7  C7  UNL A   1      16.414  50.397   5.073  1.00  0.00    +0.000 C 
ATOM    101  H11 UNL A   1      15.164  52.668   5.944  1.00  0.00    +0.000 H 
ATOM      9  C9  UNL A   1      16.541  49.066   4.646  1.00  0.00    +0.000 C 
ATOM    102  H12 UNL A   1      16.507  52.457   7.062  1.00  0.00    +0.000 H 
ATOM     11  C10 UNL A   1      15.555  52.081   6.749  1.00  0.00    +0.000 C 
ATOM     12  C11 UNL A   1      14.602  52.155   7.923  1.00  0.00    +0.000 C 
ATOM     13  C12 UNL A   1      14.927  51.061   8.942  1.00  0.00    +0.000 C 
ATOM    103  H13 UNL A   1      13.599  52.023   7.571  1.00  0.00    +0.000 H 
ATOM    104  H14 UNL A   1      14.703  53.110   8.393  1.00  0.00    +0.000 H 
ATOM     90  O4  UNL A   1      14.677  49.790   8.295  1.00  0.00    +0.000 O 
BRANCH    2    1
ATOM      1  C1  UNL A   1      16.076  46.570   4.887  1.00  0.00    +0.000 C 
ATOM     91  H1  UNL A   1      15.186  46.049   5.171  1.00  0.00    +0.000 H 
ATOM     92  H2  UNL A   1      16.927  46.085   5.317  1.00  0.00    +0.000 H 
ATOM     93  H3  UNL A   1      16.165  46.567   3.820  1.00  0.00    +0.000 H 
ENDBRANCH    2    1
BRANCH    3    4
ATOM      4  C4  UNL A   1      14.816  47.135   7.455  1.00  0.00    +0.000 C 
ATOM     94  H4  UNL A   1      15.241  46.209   7.128  1.00  0.00    +0.000 H 
ATOM     95  H5  UNL A   1      13.751  47.094   7.347  1.00  0.00    +0.000 H 
ATOM     96  H6  UNL A   1      15.064  47.298   8.482  1.00  0.00    +0.000 H 
ENDBRANCH    3    4
BRANCH    7    8
ATOM     97  H7  UNL A   1      17.784  51.995   4.810  1.00  0.00    +0.000 H 
ATOM     98  H8  UNL A   1      16.225  52.253   4.064  1.00  0.00    +0.000 H 
ATOM     99  H9  UNL A   1      17.369  51.152   3.336  1.00  0.00    +0.000 H 
ATOM      8  C8  UNL A   1      16.990  51.532   4.262  1.00  0.00    +0.000 C 
ENDBRANCH    7    8
BRANCH    9   10
ATOM     10  O1  UNL A   1      17.215  48.858   3.472  1.00  0.00    +0.000 O 
ATOM    100  H10 UNL A   1      18.153  48.844   3.466  1.00  0.00    +0.000 H 
ENDBRANCH    9   10
BRANCH   13   14
ATOM    105  H15 UNL A   1      16.693  51.997   9.735  1.00  0.00    +0.000 H 
ATOM    106  H16 UNL A   1      17.017  50.589   8.752  1.00  0.00    +0.000 H 
ATOM    107  H17 UNL A   1      16.390  50.398  10.372  1.00  0.00    +0.000 H 
ATOM     14  C13 UNL A   1      16.367  51.007   9.493  1.00  0.00    +0.000 C 
ENDBRANCH   13   14
ENDBRANCH   15   13
ENDBRANCH   17   15
ENDBRANCH   18   17
ENDBRANCH   19   18
ENDBRANCH   20   19
ENDBRANCH   21   20
ENDBRANCH   22   21
ENDBRANCH   23   22
ENDBRANCH   24   23
ENDBRANCH   25   24
ENDBRANCH   27   25
ENDBRANCH   31   30
BRANCH   35   36
ATOM     36  C30 UNL A   1      16.741  48.456  -0.835  1.00  0.00    +0.000 C 
ATOM     37  C31 UNL A   1      16.036  48.061  -1.982  1.00  0.00    +0.000 C 
ATOM     38  F1  UNL A   1      14.881  48.661  -2.303  1.00  0.00    +0.000 F 
ATOM     39  C32 UNL A   1      16.502  47.024  -2.787  1.00  0.00    +0.000 C 
ATOM     40  F2  UNL A   1      15.792  46.639  -3.857  1.00  0.00    +0.000 F 
ATOM     41  C33 UNL A   1      17.693  46.385  -2.479  1.00  0.00    +0.000 C 
ATOM     42  F3  UNL A   1      18.145  45.395  -3.260  1.00  0.00    +0.000 F 
ATOM     43  C34 UNL A   1      18.413  46.769  -1.358  1.00  0.00    +0.000 C 
ATOM     44  F4  UNL A   1      19.570  46.160  -1.064  1.00  0.00    +0.000 F 
ATOM     45  C35 UNL A   1      17.937  47.788  -0.535  1.00  0.00    +0.000 C 
ATOM     46  F5  UNL A   1      18.651  48.130   0.547  1.00  0.00    +0.000 F 
ENDBRANCH   35   36
BRANCH   52   53
ATOM     53  C41 UNL A   1      18.097  55.473   0.022  1.00  0.00    +0.000 C 
ATOM     54  C42 UNL A   1      19.319  55.813   0.620  1.00  0.00    +0.000 C 
ATOM     55  F6  UNL A   1      19.669  55.270   1.795  1.00  0.00    +0.000 F 
ATOM     56  C43 UNL A   1      20.176  56.732   0.020  1.00  0.00    +0.000 C 
ATOM     57  F7  UNL A   1      21.325  57.065   0.624  1.00  0.00    +0.000 F 
ATOM     58  C44 UNL A   1      19.840  57.307  -1.197  1.00  0.00    +0.000 C 
ATOM     59  F8  UNL A   1      20.673  58.182  -1.778  1.00  0.00    +0.000 F 
ATOM     60  C45 UNL A   1      18.639  56.980  -1.808  1.00  0.00    +0.000 C 
ATOM     61  F9  UNL A   1      18.319  57.525  -2.989  1.00  0.00    +0.000 F 
ATOM     62  C46 UNL A   1      17.769  56.079  -1.200  1.00  0.00    +0.000 C 
ATOM     63  F10 UNL A   1      16.615  55.782  -1.814  1.00  0.00    +0.000 F 
ENDBRANCH   52   53
BRANCH   67   68
ATOM     68  C50 UNL A   1      13.264  55.738   5.038  1.00  0.00    +0.000 C 
ATOM     69  C51 UNL A   1      13.851  56.019   6.280  1.00  0.00    +0.000 C 
ATOM     70  F11 UNL A   1      14.873  55.270   6.719  1.00  0.00    +0.000 F 
ATOM     71  C52 UNL A   1      13.374  57.050   7.085  1.00  0.00    +0.000 C 
ATOM     72  F12 UNL A   1      13.935  57.279   8.279  1.00  0.00    +0.000 F 
ATOM     73  C53 UNL A   1      12.315  57.835   6.654  1.00  0.00    +0.000 C 
ATOM     74  F13 UNL A   1      11.862  58.834   7.424  1.00  0.00    +0.000 F 
ATOM     75  C54 UNL A   1      11.721  57.580   5.427  1.00  0.00    +0.000 C 
ATOM     76  F14 UNL A   1      10.705  58.344   5.002  1.00  0.00    +0.000 F 
ATOM     77  C55 UNL A   1      12.184  56.533   4.631  1.00  0.00    +0.000 C 
ATOM     78  F15 UNL A   1      11.590  56.307   3.450  1.00  0.00    +0.000 F 
ENDBRANCH   67   68
TORSDOF 20
ENDMDL
MODEL 3
REMARK VINA RESULT:      -7.6     30.827     36.307
ROOT
ATOM    129  H39 UNL A   1      44.241  10.910  51.769  1.00  0.00    +0.000 H 
ATOM    130  H40 UNL A   1      47.411   9.239  48.242  1.00  0.00    +0.000 H 
ATOM    131  H41 UNL A   1      48.023   7.356  49.865  1.00  0.00    +0.000 H 
ATOM    132  H42 UNL A   1      41.831  11.178  56.796  1.00  0.00    +0.000 H 
ATOM    133  H43 UNL A   1      40.937  12.847  55.072  1.00  0.00    +0.000 H 
ATOM     31  C26 UNL A   1      42.306  12.760  52.575  1.00  0.00    +0.000 C 
ATOM     32  C27 UNL A   1      42.503  11.860  53.761  1.00  0.00    +0.000 C 
ATOM     33  N3  UNL A   1      43.328  10.854  53.908  1.00  0.00    +0.000 N 
ATOM     34  C28 UNL A   1      43.126  10.388  55.200  1.00  0.00    +0.000 C 
ATOM     35  C29 UNL A   1      43.695   9.321  55.810  1.00  0.00    +0.000 C 
ATOM     47  C36 UNL A   1      44.659   8.452  55.191  1.00  0.00    +0.000 C 
ATOM     48  C37 UNL A   1      45.266   7.324  55.715  1.00  0.00    +0.000 C 
ATOM     49  C38 UNL A   1      46.154   6.820  54.759  1.00  0.00    +0.000 C 
ATOM     50  C39 UNL A   1      46.070   7.611  53.624  1.00  0.00    +0.000 C 
ATOM     51  N4  UNL A   1      45.154   8.612  53.905  1.00  0.00    +0.000 N 
ATOM     52  C40 UNL A   1      46.777   7.467  52.378  1.00  0.00    +0.000 C 
ATOM     64  C47 UNL A   1      46.629   8.275  51.300  1.00  0.00    +0.000 C 
ATOM     65  N5  UNL A   1      45.802   9.379  51.146  1.00  0.00    +0.000 N 
ATOM     66  C48 UNL A   1      46.025   9.830  49.937  1.00  0.00    +0.000 C 
ATOM     67  C49 UNL A   1      45.392  10.996  49.230  1.00  0.00    +0.000 C 
ATOM     79  C56 UNL A   1      44.465  11.733  49.870  1.00  0.00    +0.000 C 
ATOM     80  C57 UNL A   1      43.764  12.886  49.313  1.00  0.00    +0.000 C 
ATOM     81  C58 UNL A   1      42.932  13.385  50.242  1.00  0.00    +0.000 C 
ATOM     82  C59 UNL A   1      43.019  12.563  51.450  1.00  0.00    +0.000 C 
ATOM     83  N6  UNL A   1      43.958  11.611  51.140  1.00  0.00    +0.000 N 
ATOM     84  C60 UNL A   1      47.040   9.072  49.189  1.00  0.00    +0.000 C 
ATOM     85  C61 UNL A   1      47.351   8.116  50.055  1.00  0.00    +0.000 C 
ATOM     86  C62 UNL A   1      42.138  11.249  55.813  1.00  0.00    +0.000 C 
ATOM     87  C63 UNL A   1      41.679  12.141  54.947  1.00  0.00    +0.000 C 
ATOM    124  H34 UNL A   1      45.094   6.924  56.650  1.00  0.00    +0.000 H 
ATOM    125  H35 UNL A   1      46.767   5.999  54.878  1.00  0.00    +0.000 H 
ATOM    126  H36 UNL A   1      44.893   9.330  53.284  1.00  0.00    +0.000 H 
ATOM    127  H37 UNL A   1      43.887  13.258  48.358  1.00  0.00    +0.000 H 
ATOM    128  H38 UNL A   1      42.329  14.213  50.124  1.00  0.00    +0.000 H 
ENDROOT
BRANCH   31   30
ATOM    134  H44 UNL A   1      42.794  15.256  53.415  1.00  0.00    +0.000 H 
ATOM    135  H45 UNL A   1      41.239  17.101  53.657  1.00  0.00    +0.000 H 
ATOM    123  H33 UNL A   1      39.671  12.834  51.952  1.00  0.00    +0.000 H 
ATOM     88  C64 UNL A   1      41.806  15.138  53.138  1.00  0.00    +0.000 C 
ATOM     89  C65 UNL A   1      40.924  16.211  53.243  1.00  0.00    +0.000 C 
ATOM    122  H32 UNL A   1      38.166  14.737  52.023  1.00  0.00    +0.000 H 
ATOM     27  C22 UNL A   1      39.609  16.078  52.786  1.00  0.00    +0.000 C 
ATOM     28  C23 UNL A   1      39.147  14.842  52.324  1.00  0.00    +0.000 C 
ATOM     29  C24 UNL A   1      40.017  13.752  52.273  1.00  0.00    +0.000 C 
ATOM     30  C25 UNL A   1      41.359  13.899  52.656  1.00  0.00    +0.000 C 
BRANCH   27   25
ATOM     25  C21 UNL A   1      38.676  17.224  52.805  1.00  0.00    +0.000 C 
ATOM     26  O3  UNL A   1      37.866  17.334  53.722  1.00  0.00    +0.000 O 
BRANCH   25   24
ATOM    121  H31 UNL A   1      37.901  18.712  51.712  1.00  0.00    +0.000 H 
ATOM     24  N2  UNL A   1      38.709  18.156  51.798  1.00  0.00    +0.000 N 
BRANCH   24   23
ATOM    119  H29 UNL A   1      39.614  19.418  50.441  1.00  0.00    +0.000 H 
ATOM     23  C20 UNL A   1      39.766  18.438  50.843  1.00  0.00    +0.000 C 
ATOM    120  H30 UNL A   1      40.701  18.369  51.358  1.00  0.00    +0.000 H 
BRANCH   23   22
ATOM    118  H28 UNL A   1      39.667  18.004  48.797  1.00  0.00    +0.000 H 
ATOM    117  H27 UNL A   1      39.003  16.726  49.857  1.00  0.00    +0.000 H 
ATOM     22  C19 UNL A   1      39.789  17.434  49.694  1.00  0.00    +0.000 C 
BRANCH   22   21
ATOM    115  H25 UNL A   1      41.082  15.836  50.218  1.00  0.00    +0.000 H 
ATOM    116  H26 UNL A   1      41.149  16.370  48.508  1.00  0.00    +0.000 H 
ATOM     21  C18 UNL A   1      41.101  16.661  49.537  1.00  0.00    +0.000 C 
BRANCH   21   20
ATOM    113  H23 UNL A   1      42.241  18.448  49.404  1.00  0.00    +0.000 H 
ATOM    114  H24 UNL A   1      42.517  17.453  50.868  1.00  0.00    +0.000 H 
ATOM     20  C17 UNL A   1      42.379  17.466  49.807  1.00  0.00    +0.000 C 
BRANCH   20   19
ATOM     19  C16 UNL A   1      43.659  16.882  49.204  1.00  0.00    +0.000 C 
ATOM    111  H21 UNL A   1      44.462  17.061  49.886  1.00  0.00    +0.000 H 
ATOM    112  H22 UNL A   1      43.475  15.841  49.042  1.00  0.00    +0.000 H 
BRANCH   19   18
ATOM     18  C15 UNL A   1      44.040  17.475  47.849  1.00  0.00    +0.000 C 
ATOM    109  H19 UNL A   1      43.148  17.677  47.294  1.00  0.00    +0.000 H 
ATOM    110  H20 UNL A   1      44.595  18.375  48.022  1.00  0.00    +0.000 H 
BRANCH   18   17
ATOM     17  N1  UNL A   1      44.876  16.568  47.084  1.00  0.00    +0.000 N 
ATOM    108  H18 UNL A   1      44.906  15.651  47.439  1.00  0.00    +0.000 H 
BRANCH   17   15
ATOM     15  C14 UNL A   1      45.630  16.756  45.956  1.00  0.00    +0.000 C 
ATOM     16  O2  UNL A   1      46.713  17.325  46.120  1.00  0.00    +0.000 O 
BRANCH   15   13
ATOM      2  C2  UNL A   1      41.997  13.175  42.634  1.00  0.00    +0.000 C 
ATOM      3  C3  UNL A   1      42.737  13.643  43.749  1.00  0.00    +0.000 C 
ATOM      5  C5  UNL A   1      43.395  14.886  43.670  1.00  0.00    +0.000 C 
ATOM      6  C6  UNL A   1      43.285  15.692  42.523  1.00  0.00    +0.000 C 
ATOM      7  C7  UNL A   1      42.589  15.213  41.394  1.00  0.00    +0.000 C 
ATOM    101  H11 UNL A   1      43.239  17.767  42.128  1.00  0.00    +0.000 H 
ATOM      9  C9  UNL A   1      41.961  13.961  41.468  1.00  0.00    +0.000 C 
ATOM    102  H12 UNL A   1      44.792  16.990  41.838  1.00  0.00    +0.000 H 
ATOM     11  C10 UNL A   1      43.943  17.045  42.487  1.00  0.00    +0.000 C 
ATOM     12  C11 UNL A   1      44.419  17.462  43.863  1.00  0.00    +0.000 C 
ATOM     13  C12 UNL A   1      45.130  16.298  44.556  1.00  0.00    +0.000 C 
ATOM    103  H13 UNL A   1      43.575  17.761  44.452  1.00  0.00    +0.000 H 
ATOM    104  H14 UNL A   1      45.103  18.278  43.762  1.00  0.00    +0.000 H 
ATOM     90  O4  UNL A   1      44.142  15.260  44.765  1.00  0.00    +0.000 O 
BRANCH    2    1
ATOM      1  C1  UNL A   1      41.261  11.863  42.739  1.00  0.00    +0.000 C 
ATOM     91  H1  UNL A   1      41.420  11.441  43.709  1.00  0.00    +0.000 H 
ATOM     92  H2  UNL A   1      41.624  11.189  41.992  1.00  0.00    +0.000 H 
ATOM     93  H3  UNL A   1      40.214  12.029  42.591  1.00  0.00    +0.000 H 
ENDBRANCH    2    1
BRANCH    3    4
ATOM      4  C4  UNL A   1      42.836  12.808  45.003  1.00  0.00    +0.000 C 
ATOM     94  H4  UNL A   1      41.971  12.972  45.611  1.00  0.00    +0.000 H 
ATOM     95  H5  UNL A   1      43.713  13.087  45.550  1.00  0.00    +0.000 H 
ATOM     96  H6  UNL A   1      42.895  11.773  44.740  1.00  0.00    +0.000 H 
ENDBRANCH    3    4
BRANCH    7    8
ATOM     97  H7  UNL A   1      42.928  17.015  40.327  1.00  0.00    +0.000 H 
ATOM     98  H8  UNL A   1      41.511  16.130  39.815  1.00  0.00    +0.000 H 
ATOM     99  H9  UNL A   1      43.102  15.565  39.367  1.00  0.00    +0.000 H 
ATOM      8  C8  UNL A   1      42.528  16.041  40.135  1.00  0.00    +0.000 C 
ENDBRANCH    7    8
BRANCH    9   10
ATOM     10  O1  UNL A   1      41.304  13.535  40.344  1.00  0.00    +0.000 O 
ATOM    100  H10 UNL A   1      41.317  14.060  39.567  1.00  0.00    +0.000 H 
ENDBRANCH    9   10
BRANCH   13   14
ATOM    105  H15 UNL A   1      46.345  16.004  42.807  1.00  0.00    +0.000 H 
ATOM    106  H16 UNL A   1      46.189  14.581  43.810  1.00  0.00    +0.000 H 
ATOM    107  H17 UNL A   1      47.228  15.894  44.311  1.00  0.00    +0.000 H 
ATOM     14  C13 UNL A   1      46.313  15.645  43.814  1.00  0.00    +0.000 C 
ENDBRANCH   13   14
ENDBRANCH   15   13
ENDBRANCH   17   15
ENDBRANCH   18   17
ENDBRANCH   19   18
ENDBRANCH   20   19
ENDBRANCH   21   20
ENDBRANCH   22   21
ENDBRANCH   23   22
ENDBRANCH   24   23
ENDBRANCH   25   24
ENDBRANCH   27   25
ENDBRANCH   31   30
BRANCH   35   36
ATOM     36  C30 UNL A   1      43.280   9.026  57.220  1.00  0.00    +0.000 C 
ATOM     37  C31 UNL A   1      43.880   9.678  58.308  1.00  0.00    +0.000 C 
ATOM     38  F1  UNL A   1      44.885  10.542  58.105  1.00  0.00    +0.000 F 
ATOM     39  C32 UNL A   1      43.468   9.420  59.613  1.00  0.00    +0.000 C 
ATOM     40  F2  UNL A   1      44.082  10.026  60.639  1.00  0.00    +0.000 F 
ATOM     41  C33 UNL A   1      42.432   8.530  59.853  1.00  0.00    +0.000 C 
ATOM     42  F3  UNL A   1      42.030   8.290  61.108  1.00  0.00    +0.000 F 
ATOM     43  C34 UNL A   1      41.815   7.885  58.791  1.00  0.00    +0.000 C 
ATOM     44  F4  UNL A   1      40.806   7.033  59.020  1.00  0.00    +0.000 F 
ATOM     45  C35 UNL A   1      42.241   8.121  57.486  1.00  0.00    +0.000 C 
ATOM     46  F5  UNL A   1      41.633   7.475  56.481  1.00  0.00    +0.000 F 
ENDBRANCH   35   36
BRANCH   52   53
ATOM     53  C41 UNL A   1      47.742   6.326  52.259  1.00  0.00    +0.000 C 
ATOM     54  C42 UNL A   1      49.121   6.515  52.431  1.00  0.00    +0.000 C 
ATOM     55  F6  UNL A   1      49.613   7.747  52.627  1.00  0.00    +0.000 F 
ATOM     56  C43 UNL A   1      50.001   5.438  52.378  1.00  0.00    +0.000 C 
ATOM     57  F7  UNL A   1      51.318   5.645  52.515  1.00  0.00    +0.000 F 
ATOM     58  C44 UNL A   1      49.518   4.152  52.179  1.00  0.00    +0.000 C 
ATOM     59  F8  UNL A   1      50.367   3.115  52.142  1.00  0.00    +0.000 F 
ATOM     60  C45 UNL A   1      48.157   3.943  52.014  1.00  0.00    +0.000 C 
ATOM     61  F9  UNL A   1      47.689   2.701  51.834  1.00  0.00    +0.000 F 
ATOM     62  C46 UNL A   1      47.277   5.020  52.042  1.00  0.00    +0.000 C 
ATOM     63  F10 UNL A   1      45.966   4.788  51.879  1.00  0.00    +0.000 F 
ENDBRANCH   52   53
BRANCH   67   68
ATOM     68  C50 UNL A   1      45.748  11.322  47.826  1.00  0.00    +0.000 C 
ATOM     69  C51 UNL A   1      46.547  12.435  47.531  1.00  0.00    +0.000 C 
ATOM     70  F11 UNL A   1      46.962  13.240  48.520  1.00  0.00    +0.000 F 
ATOM     71  C52 UNL A   1      46.899  12.740  46.218  1.00  0.00    +0.000 C 
ATOM     72  F12 UNL A   1      47.641  13.826  45.962  1.00  0.00    +0.000 F 
ATOM     73  C53 UNL A   1      46.478  11.927  45.178  1.00  0.00    +0.000 C 
ATOM     74  F13 UNL A   1      46.826  12.214  43.916  1.00  0.00    +0.000 F 
ATOM     75  C54 UNL A   1      45.692  10.816  45.445  1.00  0.00    +0.000 C 
ATOM     76  F14 UNL A   1      45.293  10.020  44.443  1.00  0.00    +0.000 F 
ATOM     77  C55 UNL A   1      45.320  10.523  46.756  1.00  0.00    +0.000 C 
ATOM     78  F15 UNL A   1      44.557   9.444  46.987  1.00  0.00    +0.000 F 
ENDBRANCH   67   68
TORSDOF 20
ENDMDL
MODEL 4
REMARK VINA RESULT:      -7.6      0.420      7.210
ROOT
ATOM    129  H39 UNL A   1      21.889  39.405  48.228  1.00  0.00    +0.000 H 
ATOM    130  H40 UNL A   1      18.515  42.222  50.670  1.00  0.00    +0.000 H 
ATOM    131  H41 UNL A   1      17.011  40.151  50.718  1.00  0.00    +0.000 H 
ATOM    132  H42 UNL A   1      23.856  34.930  45.536  1.00  0.00    +0.000 H 
ATOM    133  H43 UNL A   1      25.517  36.861  45.790  1.00  0.00    +0.000 H 
ATOM     31  C26 UNL A   1      24.409  39.169  47.040  1.00  0.00    +0.000 C 
ATOM     32  C27 UNL A   1      23.751  37.836  46.827  1.00  0.00    +0.000 C 
ATOM     33  N3  UNL A   1      22.548  37.444  47.163  1.00  0.00    +0.000 N 
ATOM     34  C28 UNL A   1      22.437  36.137  46.708  1.00  0.00    +0.000 C 
ATOM     35  C29 UNL A   1      21.406  35.274  46.867  1.00  0.00    +0.000 C 
ATOM     47  C36 UNL A   1      20.187  35.586  47.563  1.00  0.00    +0.000 C 
ATOM     48  C37 UNL A   1      19.099  34.766  47.807  1.00  0.00    +0.000 C 
ATOM     49  C38 UNL A   1      18.136  35.511  48.496  1.00  0.00    +0.000 C 
ATOM     50  C39 UNL A   1      18.640  36.783  48.715  1.00  0.00    +0.000 C 
ATOM     51  N4  UNL A   1      19.896  36.816  48.133  1.00  0.00    +0.000 N 
ATOM     52  C40 UNL A   1      18.020  37.886  49.401  1.00  0.00    +0.000 C 
ATOM     64  C47 UNL A   1      18.585  39.103  49.592  1.00  0.00    +0.000 C 
ATOM     65  N5  UNL A   1      19.836  39.554  49.194  1.00  0.00    +0.000 N 
ATOM     66  C48 UNL A   1      19.917  40.797  49.599  1.00  0.00    +0.000 C 
ATOM     67  C49 UNL A   1      21.056  41.767  49.455  1.00  0.00    +0.000 C 
ATOM     79  C56 UNL A   1      22.180  41.378  48.824  1.00  0.00    +0.000 C 
ATOM     80  C57 UNL A   1      23.365  42.204  48.614  1.00  0.00    +0.000 C 
ATOM     81  C58 UNL A   1      24.278  41.496  47.929  1.00  0.00    +0.000 C 
ATOM     82  C59 UNL A   1      23.753  40.154  47.683  1.00  0.00    +0.000 C 
ATOM     83  N6  UNL A   1      22.500  40.176  48.243  1.00  0.00    +0.000 N 
ATOM     84  C60 UNL A   1      18.712  41.285  50.286  1.00  0.00    +0.000 C 
ATOM     85  C61 UNL A   1      17.945  40.202  50.283  1.00  0.00    +0.000 C 
ATOM     86  C62 UNL A   1      23.674  35.817  46.028  1.00  0.00    +0.000 C 
ATOM     87  C63 UNL A   1      24.541  36.814  46.123  1.00  0.00    +0.000 C 
ATOM    124  H34 UNL A   1      19.013  33.776  47.529  1.00  0.00    +0.000 H 
ATOM    125  H35 UNL A   1      17.207  35.171  48.790  1.00  0.00    +0.000 H 
ATOM    126  H36 UNL A   1      20.495  37.599  48.124  1.00  0.00    +0.000 H 
ATOM    127  H37 UNL A   1      23.483  43.177  48.939  1.00  0.00    +0.000 H 
ATOM    128  H38 UNL A   1      25.201  41.843  47.626  1.00  0.00    +0.000 H 
ENDROOT
BRANCH   31   30
ATOM    134  H44 UNL A   1      26.650  37.777  47.502  1.00  0.00    +0.000 H 
ATOM    135  H45 UNL A   1      28.900  38.231  46.722  1.00  0.00    +0.000 H 
ATOM    123  H33 UNL A   1      25.252  41.146  45.391  1.00  0.00    +0.000 H 
ATOM     88  C64 UNL A   1      26.827  38.577  46.873  1.00  0.00    +0.000 C 
ATOM     89  C65 UNL A   1      28.114  38.813  46.397  1.00  0.00    +0.000 C 
ATOM    122  H32 UNL A   1      27.471  41.484  44.467  1.00  0.00    +0.000 H 
ATOM     27  C22 UNL A   1      28.337  39.842  45.476  1.00  0.00    +0.000 C 
ATOM     28  C23 UNL A   1      27.295  40.702  45.117  1.00  0.00    +0.000 C 
ATOM     29  C24 UNL A   1      26.017  40.499  45.640  1.00  0.00    +0.000 C 
ATOM     30  C25 UNL A   1      25.768  39.420  46.503  1.00  0.00    +0.000 C 
BRANCH   27   25
ATOM     25  C21 UNL A   1      29.675  40.062  44.888  1.00  0.00    +0.000 C 
ATOM     26  O3  UNL A   1      30.048  39.366  43.947  1.00  0.00    +0.000 O 
BRANCH   25   24
ATOM    121  H31 UNL A   1      30.906  41.633  44.732  1.00  0.00    +0.000 H 
ATOM     24  N2  UNL A   1      30.500  41.032  45.398  1.00  0.00    +0.000 N 
BRANCH   24   23
ATOM    119  H29 UNL A   1      30.375  40.579  47.406  1.00  0.00    +0.000 H 
ATOM     23  C20 UNL A   1      30.859  41.299  46.780  1.00  0.00    +0.000 C 
ATOM    120  H30 UNL A   1      31.923  41.234  46.861  1.00  0.00    +0.000 H 
BRANCH   23   22
ATOM    118  H28 UNL A   1      31.242  43.351  46.951  1.00  0.00    +0.000 H 
ATOM    117  H27 UNL A   1      30.256  42.670  48.278  1.00  0.00    +0.000 H 
ATOM     22  C19 UNL A   1      30.440  42.697  47.224  1.00  0.00    +0.000 C 
BRANCH   22   21
ATOM    115  H25 UNL A   1      29.439  44.188  46.094  1.00  0.00    +0.000 H 
ATOM    116  H26 UNL A   1      28.891  42.502  45.827  1.00  0.00    +0.000 H 
ATOM     21  C18 UNL A   1      29.187  43.247  46.537  1.00  0.00    +0.000 C 
BRANCH   21   20
ATOM    113  H23 UNL A   1      28.049  44.446  47.870  1.00  0.00    +0.000 H 
ATOM    114  H24 UNL A   1      27.111  43.328  46.831  1.00  0.00    +0.000 H 
ATOM     20  C17 UNL A   1      27.974  43.464  47.449  1.00  0.00    +0.000 C 
BRANCH   20   19
ATOM     19  C16 UNL A   1      27.834  42.465  48.600  1.00  0.00    +0.000 C 
ATOM    111  H21 UNL A   1      27.282  41.621  48.246  1.00  0.00    +0.000 H 
ATOM    112  H22 UNL A   1      28.826  42.212  48.910  1.00  0.00    +0.000 H 
BRANCH   19   18
ATOM     18  C15 UNL A   1      27.120  43.022  49.830  1.00  0.00    +0.000 C 
ATOM    109  H19 UNL A   1      27.609  43.923  50.137  1.00  0.00    +0.000 H 
ATOM    110  H20 UNL A   1      26.099  43.210  49.568  1.00  0.00    +0.000 H 
BRANCH   18   17
ATOM     17  N1  UNL A   1      27.136  42.078  50.932  1.00  0.00    +0.000 N 
ATOM    108  H18 UNL A   1      28.038  41.789  51.202  1.00  0.00    +0.000 H 
BRANCH   17   15
ATOM     15  C14 UNL A   1      26.126  41.517  51.666  1.00  0.00    +0.000 C 
ATOM     16  O2  UNL A   1      25.531  42.279  52.434  1.00  0.00    +0.000 O 
BRANCH   15   13
ATOM      2  C2  UNL A   1      21.887  37.157  51.389  1.00  0.00    +0.000 C 
ATOM      3  C3  UNL A   1      22.474  38.420  51.654  1.00  0.00    +0.000 C 
ATOM      5  C5  UNL A   1      23.800  38.665  51.249  1.00  0.00    +0.000 C 
ATOM      6  C6  UNL A   1      24.532  37.695  50.540  1.00  0.00    +0.000 C 
ATOM      7  C7  UNL A   1      23.971  36.421  50.314  1.00  0.00    +0.000 C 
ATOM    101  H11 UNL A   1      26.013  37.715  49.034  1.00  0.00    +0.000 H 
ATOM      9  C9  UNL A   1      22.660  36.173  50.746  1.00  0.00    +0.000 C 
ATOM    102  H12 UNL A   1      26.619  37.458  50.667  1.00  0.00    +0.000 H 
ATOM     11  C10 UNL A   1      25.925  38.003  50.062  1.00  0.00    +0.000 C 
ATOM     12  C11 UNL A   1      26.236  39.480  50.189  1.00  0.00    +0.000 C 
ATOM     13  C12 UNL A   1      25.775  40.005  51.549  1.00  0.00    +0.000 C 
ATOM    103  H13 UNL A   1      25.728  40.015  49.413  1.00  0.00    +0.000 H 
ATOM    104  H14 UNL A   1      27.293  39.621  50.100  1.00  0.00    +0.000 H 
ATOM     90  O4  UNL A   1      24.332  39.890  51.583  1.00  0.00    +0.000 O 
BRANCH    2    1
ATOM      1  C1  UNL A   1      20.453  36.915  51.787  1.00  0.00    +0.000 C 
ATOM     91  H1  UNL A   1      20.102  36.015  51.327  1.00  0.00    +0.000 H 
ATOM     92  H2  UNL A   1      19.850  37.738  51.468  1.00  0.00    +0.000 H 
ATOM     93  H3  UNL A   1      20.390  36.819  52.851  1.00  0.00    +0.000 H 
ENDBRANCH    2    1
BRANCH    3    4
ATOM      4  C4  UNL A   1      21.691  39.487  52.381  1.00  0.00    +0.000 C 
ATOM     94  H4  UNL A   1      22.053  40.453  52.094  1.00  0.00    +0.000 H 
ATOM     95  H5  UNL A   1      21.811  39.361  53.437  1.00  0.00    +0.000 H 
ATOM     96  H6  UNL A   1      20.655  39.406  52.128  1.00  0.00    +0.000 H 
ENDBRANCH    3    4
BRANCH    7    8
ATOM     97  H7  UNL A   1      25.711  35.223  50.124  1.00  0.00    +0.000 H 
ATOM     98  H8  UNL A   1      24.957  35.643  48.605  1.00  0.00    +0.000 H 
ATOM     99  H9  UNL A   1      24.233  34.430  49.633  1.00  0.00    +0.000 H 
ATOM      8  C8  UNL A   1      24.777  35.352  49.619  1.00  0.00    +0.000 C 
ENDBRANCH    7    8
BRANCH    9   10
ATOM     10  O1  UNL A   1      22.161  34.919  50.511  1.00  0.00    +0.000 O 
ATOM    100  H10 UNL A   1      22.521  34.394  49.822  1.00  0.00    +0.000 H 
ENDBRANCH    9   10
BRANCH   13   14
ATOM    105  H15 UNL A   1      26.027  39.842  53.679  1.00  0.00    +0.000 H 
ATOM    106  H16 UNL A   1      27.378  39.229  52.755  1.00  0.00    +0.000 H 
ATOM    107  H17 UNL A   1      25.898  38.304  52.859  1.00  0.00    +0.000 H 
ATOM     14  C13 UNL A   1      26.310  39.290  52.807  1.00  0.00    +0.000 C 
ENDBRANCH   13   14
ENDBRANCH   15   13
ENDBRANCH   17   15
ENDBRANCH   18   17
ENDBRANCH   19   18
ENDBRANCH   20   19
ENDBRANCH   21   20
ENDBRANCH   22   21
ENDBRANCH   23   22
ENDBRANCH   24   23
ENDBRANCH   25   24
ENDBRANCH   27   25
ENDBRANCH   31   30
BRANCH   35   36
ATOM     36  C30 UNL A   1      21.556  33.901  46.285  1.00  0.00    +0.000 C 
ATOM     37  C31 UNL A   1      22.177  32.868  47.004  1.00  0.00    +0.000 C 
ATOM     38  F1  UNL A   1      22.703  33.110  48.213  1.00  0.00    +0.000 F 
ATOM     39  C32 UNL A   1      22.286  31.587  46.467  1.00  0.00    +0.000 C 
ATOM     40  F2  UNL A   1      22.917  30.626  47.157  1.00  0.00    +0.000 F 
ATOM     41  C33 UNL A   1      21.753  31.308  45.219  1.00  0.00    +0.000 C 
ATOM     42  F3  UNL A   1      21.850  30.073  44.708  1.00  0.00    +0.000 F 
ATOM     43  C34 UNL A   1      21.122  32.310  44.497  1.00  0.00    +0.000 C 
ATOM     44  F4  UNL A   1      20.596  32.039  43.294  1.00  0.00    +0.000 F 
ATOM     45  C35 UNL A   1      21.034  33.599  45.018  1.00  0.00    +0.000 C 
ATOM     46  F5  UNL A   1      20.428  34.549  44.292  1.00  0.00    +0.000 F 
ENDBRANCH   35   36
BRANCH   52   53
ATOM     53  C41 UNL A   1      16.646  37.668  49.960  1.00  0.00    +0.000 C 
ATOM     54  C42 UNL A   1      16.422  37.604  51.343  1.00  0.00    +0.000 C 
ATOM     55  F6  UNL A   1      17.455  37.657  52.196  1.00  0.00    +0.000 F 
ATOM     56  C43 UNL A   1      15.133  37.462  51.851  1.00  0.00    +0.000 C 
ATOM     57  F7  UNL A   1      14.945  37.373  53.175  1.00  0.00    +0.000 F 
ATOM     58  C44 UNL A   1      14.047  37.408  50.990  1.00  0.00    +0.000 C 
ATOM     59  F8  UNL A   1      12.806  37.285  51.483  1.00  0.00    +0.000 F 
ATOM     60  C45 UNL A   1      14.246  37.476  49.620  1.00  0.00    +0.000 C 
ATOM     61  F9  UNL A   1      13.196  37.436  48.788  1.00  0.00    +0.000 F 
ATOM     62  C46 UNL A   1      15.534  37.594  49.107  1.00  0.00    +0.000 C 
ATOM     63  F10 UNL A   1      15.697  37.657  47.777  1.00  0.00    +0.000 F 
ENDBRANCH   52   53
BRANCH   67   68
ATOM     68  C50 UNL A   1      20.973  43.133  50.032  1.00  0.00    +0.000 C 
ATOM     69  C51 UNL A   1      20.347  44.170  49.326  1.00  0.00    +0.000 C 
ATOM     70  F11 UNL A   1      19.855  43.940  48.099  1.00  0.00    +0.000 F 
ATOM     71  C52 UNL A   1      20.250  45.450  49.864  1.00  0.00    +0.000 C 
ATOM     72  F12 UNL A   1      19.672  46.429  49.156  1.00  0.00    +0.000 F 
ATOM     73  C53 UNL A   1      20.755  45.714  51.128  1.00  0.00    +0.000 C 
ATOM     74  F13 UNL A   1      20.652  46.944  51.650  1.00  0.00    +0.000 F 
ATOM     75  C54 UNL A   1      21.373  44.702  51.848  1.00  0.00    +0.000 C 
ATOM     76  F14 UNL A   1      21.853  44.951  53.075  1.00  0.00    +0.000 F 
ATOM     77  C55 UNL A   1      21.492  43.426  51.301  1.00  0.00    +0.000 C 
ATOM     78  F15 UNL A   1      22.096  42.467  52.018  1.00  0.00    +0.000 F 
ENDBRANCH   67   68
TORSDOF 20
ENDMDL
MODEL 5
REMARK VINA RESULT:      -7.6     30.948     38.100
ROOT
ATOM    129  H39 UNL A   1       0.918   8.493  36.839  1.00  0.00    +0.000 H 
ATOM    130  H40 UNL A   1      -2.947   6.250  34.535  1.00  0.00    +0.000 H 
ATOM    131  H41 UNL A   1      -1.544   4.109  34.543  1.00  0.00    +0.000 H 
ATOM    132  H42 UNL A   1       6.097   9.010  38.853  1.00  0.00    +0.000 H 
ATOM    133  H43 UNL A   1       4.593  11.055  39.186  1.00  0.00    +0.000 H 
ATOM     31  C26 UNL A   1       2.014  10.785  38.008  1.00  0.00    +0.000 C 
ATOM     32  C27 UNL A   1       3.098   9.749  38.088  1.00  0.00    +0.000 C 
ATOM     33  N3  UNL A   1       3.100   8.517  37.648  1.00  0.00    +0.000 N 
ATOM     34  C28 UNL A   1       4.355   8.009  37.953  1.00  0.00    +0.000 C 
ATOM     35  C29 UNL A   1       4.827   6.755  37.759  1.00  0.00    +0.000 C 
ATOM     47  C36 UNL A   1       4.071   5.686  37.165  1.00  0.00    +0.000 C 
ATOM     48  C37 UNL A   1       4.450   4.372  36.958  1.00  0.00    +0.000 C 
ATOM     49  C38 UNL A   1       3.396   3.706  36.324  1.00  0.00    +0.000 C 
ATOM     50  C39 UNL A   1       2.345   4.596  36.172  1.00  0.00    +0.000 C 
ATOM     51  N4  UNL A   1       2.775   5.808  36.687  1.00  0.00    +0.000 N 
ATOM     52  C40 UNL A   1       1.047   4.359  35.596  1.00  0.00    +0.000 C 
ATOM     64  C47 UNL A   1       0.058   5.280  35.497  1.00  0.00    +0.000 C 
ATOM     65  N5  UNL A   1       0.058   6.606  35.907  1.00  0.00    +0.000 N 
ATOM     66  C48 UNL A   1      -1.118   7.084  35.584  1.00  0.00    +0.000 C 
ATOM     67  C49 UNL A   1      -1.674   8.463  35.809  1.00  0.00    +0.000 C 
ATOM     79  C56 UNL A   1      -0.910   9.393  36.411  1.00  0.00    +0.000 C 
ATOM     80  C57 UNL A   1      -1.314  10.766  36.700  1.00  0.00    +0.000 C 
ATOM     81  C58 UNL A   1      -0.290  11.411  37.284  1.00  0.00    +0.000 C 
ATOM     82  C59 UNL A   1       0.830  10.484  37.441  1.00  0.00    +0.000 C 
ATOM     83  N6  UNL A   1       0.375   9.312  36.889  1.00  0.00    +0.000 N 
ATOM     84  C60 UNL A   1      -1.996   6.116  34.910  1.00  0.00    +0.000 C 
ATOM     85  C61 UNL A   1      -1.242   5.024  34.912  1.00  0.00    +0.000 C 
ATOM     86  C62 UNL A   1       5.107   9.080  38.572  1.00  0.00    +0.000 C 
ATOM     87  C63 UNL A   1       4.357  10.160  38.730  1.00  0.00    +0.000 C 
ATOM    124  H34 UNL A   1       5.355   3.954  37.225  1.00  0.00    +0.000 H 
ATOM    125  H35 UNL A   1       3.400   2.720  36.021  1.00  0.00    +0.000 H 
ATOM    126  H36 UNL A   1       2.239   6.635  36.710  1.00  0.00    +0.000 H 
ATOM    127  H37 UNL A   1      -2.237  11.176  36.489  1.00  0.00    +0.000 H 
ATOM    128  H38 UNL A   1      -0.294  12.400  37.575  1.00  0.00    +0.000 H 
ENDROOT
BRANCH   31   30
ATOM    134  H44 UNL A   1       2.876  12.917  36.636  1.00  0.00    +0.000 H 
ATOM    135  H45 UNL A   1       3.387  15.140  37.458  1.00  0.00    +0.000 H 
ATOM    123  H33 UNL A   1       1.739  11.753  40.523  1.00  0.00    +0.000 H 
ATOM     88  C64 UNL A   1       2.725  13.146  37.631  1.00  0.00    +0.000 C 
ATOM     89  C65 UNL A   1       2.983  14.434  38.093  1.00  0.00    +0.000 C 
ATOM    122  H32 UNL A   1       2.075  14.028  41.299  1.00  0.00    +0.000 H 
ATOM     27  C22 UNL A   1       2.695  14.769  39.420  1.00  0.00    +0.000 C 
ATOM     28  C23 UNL A   1       2.251  13.788  40.311  1.00  0.00    +0.000 C 
ATOM     29  C24 UNL A   1       2.047  12.483  39.861  1.00  0.00    +0.000 C 
ATOM     30  C25 UNL A   1       2.259  12.158  38.512  1.00  0.00    +0.000 C 
BRANCH   27   25
ATOM     25  C21 UNL A   1       2.878  16.149  39.915  1.00  0.00    +0.000 C 
ATOM     26  O3  UNL A   1       2.820  17.091  39.128  1.00  0.00    +0.000 O 
BRANCH   25   24
ATOM    121  H31 UNL A   1       2.321  16.541  41.798  1.00  0.00    +0.000 H 
ATOM     24  N2  UNL A   1       3.120  16.376  41.246  1.00  0.00    +0.000 N 
BRANCH   24   23
ATOM    119  H29 UNL A   1       4.504  17.371  42.408  1.00  0.00    +0.000 H 
ATOM     23  C20 UNL A   1       4.386  16.408  41.956  1.00  0.00    +0.000 C 
ATOM    120  H30 UNL A   1       4.369  15.632  42.693  1.00  0.00    +0.000 H 
BRANCH   23   22
ATOM    118  H28 UNL A   1       6.210  17.005  41.118  1.00  0.00    +0.000 H 
ATOM    117  H27 UNL A   1       5.196  15.999  40.043  1.00  0.00    +0.000 H 
ATOM     22  C19 UNL A   1       5.573  16.150  41.032  1.00  0.00    +0.000 C 
BRANCH   22   21
ATOM    115  H25 UNL A   1       7.022  14.678  40.552  1.00  0.00    +0.000 H 
ATOM    116  H26 UNL A   1       7.008  15.236  42.255  1.00  0.00    +0.000 H 
ATOM     21  C18 UNL A   1       6.431  14.938  41.405  1.00  0.00    +0.000 C 
BRANCH   21   20
ATOM    113  H23 UNL A   1       6.059  13.358  42.775  1.00  0.00    +0.000 H 
ATOM    114  H24 UNL A   1       4.628  13.982  41.897  1.00  0.00    +0.000 H 
ATOM     20  C17 UNL A   1       5.656  13.688  41.840  1.00  0.00    +0.000 C 
BRANCH   20   19
ATOM     19  C16 UNL A   1       5.707  12.512  40.861  1.00  0.00    +0.000 C 
ATOM    111  H21 UNL A   1       4.965  11.800  41.154  1.00  0.00    +0.000 H 
ATOM    112  H22 UNL A   1       5.532  12.917  39.886  1.00  0.00    +0.000 H 
BRANCH   19   18
ATOM     18  C15 UNL A   1       7.058  11.802  40.805  1.00  0.00    +0.000 C 
ATOM    109  H19 UNL A   1       7.760  12.343  41.403  1.00  0.00    +0.000 H 
ATOM    110  H20 UNL A   1       6.927  10.806  41.176  1.00  0.00    +0.000 H 
BRANCH   18   17
ATOM     17  N1  UNL A   1       7.561  11.716  39.446  1.00  0.00    +0.000 N 
ATOM    108  H18 UNL A   1       7.399  10.849  39.010  1.00  0.00    +0.000 H 
BRANCH   17   15
ATOM     15  C14 UNL A   1       8.219  12.623  38.660  1.00  0.00    +0.000 C 
ATOM     16  O2  UNL A   1       9.362  12.922  39.022  1.00  0.00    +0.000 O 
BRANCH   15   13
ATOM      2  C2  UNL A   1       8.615  16.323  33.843  1.00  0.00    +0.000 C 
ATOM      3  C3  UNL A   1       8.916  15.756  35.107  1.00  0.00    +0.000 C 
ATOM      5  C5  UNL A   1       8.217  14.612  35.535  1.00  0.00    +0.000 C 
ATOM      6  C6  UNL A   1       7.263  13.993  34.707  1.00  0.00    +0.000 C 
ATOM      7  C7  UNL A   1       6.926  14.578  33.469  1.00  0.00    +0.000 C 
ATOM    101  H11 UNL A   1       6.607  12.014  34.368  1.00  0.00    +0.000 H 
ATOM      9  C9  UNL A   1       7.605  15.736  33.060  1.00  0.00    +0.000 C 
ATOM    102  H12 UNL A   1       5.564  12.973  35.413  1.00  0.00    +0.000 H 
ATOM     11  C10 UNL A   1       6.576  12.733  35.160  1.00  0.00    +0.000 C 
ATOM     12  C11 UNL A   1       7.249  12.149  36.384  1.00  0.00    +0.000 C 
ATOM     13  C12 UNL A   1       7.550  13.250  37.402  1.00  0.00    +0.000 C 
ATOM    103  H13 UNL A   1       8.166  11.679  36.091  1.00  0.00    +0.000 H 
ATOM    104  H14 UNL A   1       6.596  11.430  36.831  1.00  0.00    +0.000 H 
ATOM     90  O4  UNL A   1       8.516  14.140  36.794  1.00  0.00    +0.000 O 
BRANCH    2    1
ATOM      1  C1  UNL A   1       9.396  17.524  33.371  1.00  0.00    +0.000 C 
ATOM     91  H1  UNL A   1       8.719  18.314  33.120  1.00  0.00    +0.000 H 
ATOM     92  H2  UNL A   1       9.972  17.260  32.509  1.00  0.00    +0.000 H 
ATOM     93  H3  UNL A   1      10.051  17.852  34.151  1.00  0.00    +0.000 H 
ENDBRANCH    2    1
BRANCH    3    4
ATOM      4  C4  UNL A   1       9.964  16.385  35.994  1.00  0.00    +0.000 C 
ATOM     94  H4  UNL A   1      10.072  17.419  35.740  1.00  0.00    +0.000 H 
ATOM     95  H5  UNL A   1      10.899  15.884  35.854  1.00  0.00    +0.000 H 
ATOM     96  H6  UNL A   1       9.664  16.299  37.018  1.00  0.00    +0.000 H 
ENDBRANCH    3    4
BRANCH    7    8
ATOM     97  H7  UNL A   1       4.889  14.251  32.974  1.00  0.00    +0.000 H 
ATOM     98  H8  UNL A   1       5.938  12.894  32.640  1.00  0.00    +0.000 H 
ATOM     99  H9  UNL A   1       5.967  14.297  31.599  1.00  0.00    +0.000 H 
ATOM      8  C8  UNL A   1       5.852  13.961  32.608  1.00  0.00    +0.000 C 
ENDBRANCH    7    8
BRANCH    9   10
ATOM     10  O1  UNL A   1       7.237  16.271  31.854  1.00  0.00    +0.000 O 
ATOM    100  H10 UNL A   1       7.696  17.014  31.513  1.00  0.00    +0.000 H 
ENDBRANCH    9   10
BRANCH   13   14
ATOM    105  H15 UNL A   1       6.744  14.954  38.437  1.00  0.00    +0.000 H 
ATOM    106  H16 UNL A   1       5.717  13.541  38.489  1.00  0.00    +0.000 H 
ATOM    107  H17 UNL A   1       5.831  14.485  37.023  1.00  0.00    +0.000 H 
ATOM     14  C13 UNL A   1       6.371  14.125  37.874  1.00  0.00    +0.000 C 
ENDBRANCH   13   14
ENDBRANCH   15   13
ENDBRANCH   17   15
ENDBRANCH   18   17
ENDBRANCH   19   18
ENDBRANCH   20   19
ENDBRANCH   21   20
ENDBRANCH   22   21
ENDBRANCH   23   22
ENDBRANCH   24   23
ENDBRANCH   25   24
ENDBRANCH   27   25
ENDBRANCH   31   30
BRANCH   35   36
ATOM     36  C30 UNL A   1       6.230   6.467  38.203  1.00  0.00    +0.000 C 
ATOM     37  C31 UNL A   1       6.489   5.786  39.403  1.00  0.00    +0.000 C 
ATOM     38  F1  UNL A   1       5.477   5.431  40.208  1.00  0.00    +0.000 F 
ATOM     39  C32 UNL A   1       7.793   5.496  39.795  1.00  0.00    +0.000 C 
ATOM     40  F2  UNL A   1       8.017   4.879  40.963  1.00  0.00    +0.000 F 
ATOM     41  C33 UNL A   1       8.859   5.852  38.983  1.00  0.00    +0.000 C 
ATOM     42  F3  UNL A   1      10.113   5.563  39.357  1.00  0.00    +0.000 F 
ATOM     43  C34 UNL A   1       8.625   6.513  37.786  1.00  0.00    +0.000 C 
ATOM     44  F4  UNL A   1       9.654   6.849  36.995  1.00  0.00    +0.000 F 
ATOM     45  C35 UNL A   1       7.323   6.828  37.403  1.00  0.00    +0.000 C 
ATOM     46  F5  UNL A   1       7.130   7.477  36.246  1.00  0.00    +0.000 F 
ENDBRANCH   35   36
BRANCH   52   53
ATOM     53  C41 UNL A   1       0.762   2.981  35.077  1.00  0.00    +0.000 C 
ATOM     54  C42 UNL A   1       0.034   2.053  35.835  1.00  0.00    +0.000 C 
ATOM     55  F6  UNL A   1      -0.355   2.356  37.082  1.00  0.00    +0.000 F 
ATOM     56  C43 UNL A   1      -0.276   0.797  35.318  1.00  0.00    +0.000 C 
ATOM     57  F7  UNL A   1      -0.947  -0.086  36.071  1.00  0.00    +0.000 F 
ATOM     58  C44 UNL A   1       0.112   0.459  34.030  1.00  0.00    +0.000 C 
ATOM     59  F8  UNL A   1      -0.201  -0.745  33.531  1.00  0.00    +0.000 F 
ATOM     60  C45 UNL A   1       0.826   1.365  33.262  1.00  0.00    +0.000 C 
ATOM     61  F9  UNL A   1       1.191   1.044  32.014  1.00  0.00    +0.000 F 
ATOM     62  C46 UNL A   1       1.159   2.612  33.784  1.00  0.00    +0.000 C 
ATOM     63  F10 UNL A   1       1.851   3.469  33.019  1.00  0.00    +0.000 F 
ENDBRANCH   52   53
BRANCH   67   68
ATOM     68  C50 UNL A   1      -3.064   8.800  35.409  1.00  0.00    +0.000 C 
ATOM     69  C51 UNL A   1      -3.326   9.393  34.167  1.00  0.00    +0.000 C 
ATOM     70  F11 UNL A   1      -2.311   9.701  33.346  1.00  0.00    +0.000 F 
ATOM     71  C52 UNL A   1      -4.628   9.699  33.777  1.00  0.00    +0.000 C 
ATOM     72  F12 UNL A   1      -4.848  10.292  32.596  1.00  0.00    +0.000 F 
ATOM     73  C53 UNL A   1      -5.693   9.396  34.611  1.00  0.00    +0.000 C 
ATOM     74  F13 UNL A   1      -6.946   9.680  34.230  1.00  0.00    +0.000 F 
ATOM     75  C54 UNL A   1      -5.459   8.802  35.842  1.00  0.00    +0.000 C 
ATOM     76  F14 UNL A   1      -6.487   8.497  36.645  1.00  0.00    +0.000 F 
ATOM     77  C55 UNL A   1      -4.155   8.517  36.243  1.00  0.00    +0.000 C 
ATOM     78  F15 UNL A   1      -3.956   7.945  37.440  1.00  0.00    +0.000 F 
ENDBRANCH   67   68
TORSDOF 20
ENDMDL
MODEL 6
REMARK VINA RESULT:      -7.6     25.273     31.004
ROOT
ATOM    129  H39 UNL A   1      42.161  27.428  29.838  1.00  0.00    +0.000 H 
ATOM    130  H40 UNL A   1      45.130  23.547  28.654  1.00  0.00    +0.000 H 
ATOM    131  H41 UNL A   1      46.797  24.464  30.368  1.00  0.00    +0.000 H 
ATOM    132  H42 UNL A   1      40.745  32.266  32.232  1.00  0.00    +0.000 H 
ATOM    133  H43 UNL A   1      38.916  31.184  30.804  1.00  0.00    +0.000 H 
ATOM     31  C26 UNL A   1      39.748  28.796  29.492  1.00  0.00    +0.000 C 
ATOM     32  C27 UNL A   1      40.527  29.622  30.475  1.00  0.00    +0.000 C 
ATOM     33  N3  UNL A   1      41.735  29.431  30.942  1.00  0.00    +0.000 N 
ATOM     34  C28 UNL A   1      41.983  30.499  31.793  1.00  0.00    +0.000 C 
ATOM     35  C29 UNL A   1      43.070  30.726  32.566  1.00  0.00    +0.000 C 
ATOM     47  C36 UNL A   1      44.214  29.856  32.633  1.00  0.00    +0.000 C 
ATOM     48  C37 UNL A   1      45.350  29.982  33.414  1.00  0.00    +0.000 C 
ATOM     49  C38 UNL A   1      46.203  28.913  33.121  1.00  0.00    +0.000 C 
ATOM     50  C39 UNL A   1      45.581  28.101  32.187  1.00  0.00    +0.000 C 
ATOM     51  N4  UNL A   1      44.365  28.694  31.892  1.00  0.00    +0.000 N 
ATOM     52  C40 UNL A   1      46.064  26.875  31.604  1.00  0.00    +0.000 C 
ATOM     64  C47 UNL A   1      45.388  26.122  30.703  1.00  0.00    +0.000 C 
ATOM     65  N5  UNL A   1      44.131  26.337  30.156  1.00  0.00    +0.000 N 
ATOM     66  C48 UNL A   1      43.922  25.342  29.329  1.00  0.00    +0.000 C 
ATOM     67  C49 UNL A   1      42.716  25.056  28.478  1.00  0.00    +0.000 C 
ATOM     79  C56 UNL A   1      41.670  25.903  28.508  1.00  0.00    +0.000 C 
ATOM     80  C57 UNL A   1      40.435  25.754  27.744  1.00  0.00    +0.000 C 
ATOM     81  C58 UNL A   1      39.629  26.795  28.006  1.00  0.00    +0.000 C 
ATOM     82  C59 UNL A   1      40.278  27.668  28.984  1.00  0.00    +0.000 C 
ATOM     83  N6  UNL A   1      41.488  27.063  29.220  1.00  0.00    +0.000 N 
ATOM     84  C60 UNL A   1      45.037  24.388  29.244  1.00  0.00    +0.000 C 
ATOM     85  C61 UNL A   1      45.890  24.892  30.125  1.00  0.00    +0.000 C 
ATOM     86  C62 UNL A   1      40.821  31.361  31.743  1.00  0.00    +0.000 C 
ATOM     87  C63 UNL A   1      39.869  30.835  30.986  1.00  0.00    +0.000 C 
ATOM    124  H34 UNL A   1      45.535  30.735  34.095  1.00  0.00    +0.000 H 
ATOM    125  H35 UNL A   1      47.137  28.757  33.531  1.00  0.00    +0.000 H 
ATOM    126  H36 UNL A   1      43.705  28.342  31.251  1.00  0.00    +0.000 H 
ATOM    127  H37 UNL A   1      40.217  24.974  27.104  1.00  0.00    +0.000 H 
ATOM    128  H38 UNL A   1      38.700  26.955  27.586  1.00  0.00    +0.000 H 
ENDROOT
BRANCH   31   30
ATOM    134  H44 UNL A   1      37.438  28.711  30.845  1.00  0.00    +0.000 H 
ATOM    135  H45 UNL A   1      35.220  29.339  30.092  1.00  0.00    +0.000 H 
ATOM    123  H33 UNL A   1      39.018  29.866  27.113  1.00  0.00    +0.000 H 
ATOM     88  C64 UNL A   1      37.306  29.107  29.901  1.00  0.00    +0.000 C 
ATOM     89  C65 UNL A   1      36.037  29.502  29.485  1.00  0.00    +0.000 C 
ATOM    122  H32 UNL A   1      36.828  30.664  26.436  1.00  0.00    +0.000 H 
ATOM     27  C22 UNL A   1      35.873  30.119  28.241  1.00  0.00    +0.000 C 
ATOM     28  C23 UNL A   1      36.959  30.243  27.369  1.00  0.00    +0.000 C 
ATOM     29  C24 UNL A   1      38.220  29.794  27.764  1.00  0.00    +0.000 C 
ATOM     30  C25 UNL A   1      38.408  29.245  29.042  1.00  0.00    +0.000 C 
BRANCH   27   25
ATOM     25  C21 UNL A   1      34.554  30.626  27.809  1.00  0.00    +0.000 C 
ATOM     26  O3  UNL A   1      34.311  31.829  27.877  1.00  0.00    +0.000 O 
BRANCH   25   24
ATOM    121  H31 UNL A   1      33.027  29.350  28.033  1.00  0.00    +0.000 H 
ATOM     24  N2  UNL A   1      33.601  29.756  27.343  1.00  0.00    +0.000 N 
BRANCH   24   23
ATOM    119  H29 UNL A   1      33.474  30.186  25.330  1.00  0.00    +0.000 H 
ATOM     23  C20 UNL A   1      33.319  29.348  25.978  1.00  0.00    +0.000 C 
ATOM    120  H30 UNL A   1      33.974  28.540  25.734  1.00  0.00    +0.000 H 
BRANCH   23   22
ATOM    118  H28 UNL A   1      31.357  29.161  26.687  1.00  0.00    +0.000 H 
ATOM    117  H27 UNL A   1      31.911  27.795  25.675  1.00  0.00    +0.000 H 
ATOM     22  C19 UNL A   1      31.885  28.856  25.807  1.00  0.00    +0.000 C 
BRANCH   22   21
ATOM    115  H25 UNL A   1      30.086  29.271  24.762  1.00  0.00    +0.000 H 
ATOM    116  H26 UNL A   1      31.378  30.504  24.617  1.00  0.00    +0.000 H 
ATOM     21  C18 UNL A   1      31.129  29.464  24.622  1.00  0.00    +0.000 C 
BRANCH   21   20
ATOM    113  H23 UNL A   1      31.658  29.768  22.588  1.00  0.00    +0.000 H 
ATOM    114  H24 UNL A   1      32.419  28.359  23.390  1.00  0.00    +0.000 H 
ATOM     20  C17 UNL A   1      31.526  28.929  23.241  1.00  0.00    +0.000 C 
BRANCH   20   19
ATOM     19  C16 UNL A   1      30.517  27.978  22.592  1.00  0.00    +0.000 C 
ATOM    111  H21 UNL A   1      29.699  27.846  23.268  1.00  0.00    +0.000 H 
ATOM    112  H22 UNL A   1      30.223  28.427  21.666  1.00  0.00    +0.000 H 
BRANCH   19   18
ATOM     18  C15 UNL A   1      31.084  26.602  22.250  1.00  0.00    +0.000 C 
ATOM    109  H19 UNL A   1      30.758  26.326  21.269  1.00  0.00    +0.000 H 
ATOM    110  H20 UNL A   1      32.152  26.659  22.296  1.00  0.00    +0.000 H 
BRANCH   18   17
ATOM     17  N1  UNL A   1      30.644  25.592  23.195  1.00  0.00    +0.000 N 
ATOM    108  H18 UNL A   1      30.120  24.863  22.791  1.00  0.00    +0.000 H 
BRANCH   17   15
ATOM     15  C14 UNL A   1      30.828  25.466  24.546  1.00  0.00    +0.000 C 
ATOM     16  O2  UNL A   1      29.899  25.865  25.256  1.00  0.00    +0.000 O 
BRANCH   15   13
ATOM      2  C2  UNL A   1      34.777  20.847  24.900  1.00  0.00    +0.000 C 
ATOM      3  C3  UNL A   1      33.564  21.539  24.651  1.00  0.00    +0.000 C 
ATOM      5  C5  UNL A   1      33.522  22.938  24.803  1.00  0.00    +0.000 C 
ATOM      6  C6  UNL A   1      34.676  23.664  25.145  1.00  0.00    +0.000 C 
ATOM      7  C7  UNL A   1      35.873  22.980  25.439  1.00  0.00    +0.000 C 
ATOM    101  H11 UNL A   1      35.449  25.579  24.700  1.00  0.00    +0.000 H 
ATOM      9  C9  UNL A   1      35.902  21.583  25.316  1.00  0.00    +0.000 C 
ATOM    102  H12 UNL A   1      34.667  25.442  26.271  1.00  0.00    +0.000 H 
ATOM     11  C10 UNL A   1      34.621  25.166  25.239  1.00  0.00    +0.000 C 
ATOM     12  C11 UNL A   1      33.333  25.706  24.654  1.00  0.00    +0.000 C 
ATOM     13  C12 UNL A   1      32.141  24.879  25.139  1.00  0.00    +0.000 C 
ATOM    103  H13 UNL A   1      33.384  25.660  23.586  1.00  0.00    +0.000 H 
ATOM    104  H14 UNL A   1      33.206  26.720  24.972  1.00  0.00    +0.000 H 
ATOM     90  O4  UNL A   1      32.303  23.545  24.600  1.00  0.00    +0.000 O 
BRANCH    2    1
ATOM      1  C1  UNL A   1      34.827  19.354  24.696  1.00  0.00    +0.000 C 
ATOM     91  H1  UNL A   1      35.625  18.941  25.278  1.00  0.00    +0.000 H 
ATOM     92  H2  UNL A   1      34.993  19.141  23.661  1.00  0.00    +0.000 H 
ATOM     93  H3  UNL A   1      33.899  18.921  25.005  1.00  0.00    +0.000 H 
ENDBRANCH    2    1
BRANCH    3    4
ATOM      4  C4  UNL A   1      32.323  20.779  24.246  1.00  0.00    +0.000 C 
ATOM     94  H4  UNL A   1      31.750  20.542  25.118  1.00  0.00    +0.000 H 
ATOM     95  H5  UNL A   1      32.605  19.874  23.749  1.00  0.00    +0.000 H 
ATOM     96  H6  UNL A   1      31.735  21.381  23.586  1.00  0.00    +0.000 H 
ENDBRANCH    3    4
BRANCH    7    8
ATOM     97  H7  UNL A   1      37.087  23.854  26.943  1.00  0.00    +0.000 H 
ATOM     98  H8  UNL A   1      37.092  24.715  25.422  1.00  0.00    +0.000 H 
ATOM     99  H9  UNL A   1      37.976  23.216  25.580  1.00  0.00    +0.000 H 
ATOM      8  C8  UNL A   1      37.096  23.747  25.878  1.00  0.00    +0.000 C 
ENDBRANCH    7    8
BRANCH    9   10
ATOM     10  O1  UNL A   1      37.084  20.962  25.619  1.00  0.00    +0.000 O 
ATOM    100  H10 UNL A   1      37.864  21.470  25.734  1.00  0.00    +0.000 H 
ENDBRANCH    9   10
BRANCH   13   14
ATOM    105  H15 UNL A   1      32.538  23.901  27.013  1.00  0.00    +0.000 H 
ATOM    106  H16 UNL A   1      30.919  24.547  26.877  1.00  0.00    +0.000 H 
ATOM    107  H17 UNL A   1      32.269  25.623  27.153  1.00  0.00    +0.000 H 
ATOM     14  C13 UNL A   1      31.953  24.726  26.662  1.00  0.00    +0.000 C 
ENDBRANCH   13   14
ENDBRANCH   15   13
ENDBRANCH   17   15
ENDBRANCH   18   17
ENDBRANCH   19   18
ENDBRANCH   20   19
ENDBRANCH   21   20
ENDBRANCH   22   21
ENDBRANCH   23   22
ENDBRANCH   24   23
ENDBRANCH   25   24
ENDBRANCH   27   25
ENDBRANCH   31   30
BRANCH   35   36
ATOM     36  C30 UNL A   1      43.072  31.962  33.415  1.00  0.00    +0.000 C 
ATOM     37  C31 UNL A   1      43.602  33.171  32.941  1.00  0.00    +0.000 C 
ATOM     38  F1  UNL A   1      44.175  33.227  31.729  1.00  0.00    +0.000 F 
ATOM     39  C32 UNL A   1      43.573  34.322  33.724  1.00  0.00    +0.000 C 
ATOM     40  F2  UNL A   1      44.120  35.456  33.265  1.00  0.00    +0.000 F 
ATOM     41  C33 UNL A   1      42.989  34.294  34.981  1.00  0.00    +0.000 C 
ATOM     42  F3  UNL A   1      42.953  35.404  35.730  1.00  0.00    +0.000 F 
ATOM     43  C34 UNL A   1      42.446  33.112  35.464  1.00  0.00    +0.000 C 
ATOM     44  F4  UNL A   1      41.871  33.086  36.675  1.00  0.00    +0.000 F 
ATOM     45  C35 UNL A   1      42.496  31.952  34.694  1.00  0.00    +0.000 C 
ATOM     46  F5  UNL A   1      41.972  30.824  35.192  1.00  0.00    +0.000 F 
ENDBRANCH   35   36
BRANCH   52   53
ATOM     53  C41 UNL A   1      47.415  26.389  32.037  1.00  0.00    +0.000 C 
ATOM     54  C42 UNL A   1      47.558  25.476  33.091  1.00  0.00    +0.000 C 
ATOM     55  F6  UNL A   1      46.484  25.080  33.791  1.00  0.00    +0.000 F 
ATOM     56  C43 UNL A   1      48.812  24.985  33.445  1.00  0.00    +0.000 C 
ATOM     57  F7  UNL A   1      48.930  24.136  34.475  1.00  0.00    +0.000 F 
ATOM     58  C44 UNL A   1      49.938  25.376  32.735  1.00  0.00    +0.000 C 
ATOM     59  F8  UNL A   1      51.142  24.891  33.069  1.00  0.00    +0.000 F 
ATOM     60  C45 UNL A   1      49.817  26.273  31.685  1.00  0.00    +0.000 C 
ATOM     61  F9  UNL A   1      50.903  26.642  30.992  1.00  0.00    +0.000 F 
ATOM     62  C46 UNL A   1      48.568  26.784  31.344  1.00  0.00    +0.000 C 
ATOM     63  F10 UNL A   1      48.482  27.650  30.324  1.00  0.00    +0.000 F 
ENDBRANCH   52   53
BRANCH   67   68
ATOM     68  C50 UNL A   1      42.649  23.836  27.635  1.00  0.00    +0.000 C 
ATOM     69  C51 UNL A   1      43.019  23.880  26.284  1.00  0.00    +0.000 C 
ATOM     70  F11 UNL A   1      43.397  25.042  25.733  1.00  0.00    +0.000 F 
ATOM     71  C52 UNL A   1      42.975  22.738  25.488  1.00  0.00    +0.000 C 
ATOM     72  F12 UNL A   1      43.307  22.813  24.193  1.00  0.00    +0.000 F 
ATOM     73  C53 UNL A   1      42.583  21.525  26.034  1.00  0.00    +0.000 C 
ATOM     74  F13 UNL A   1      42.551  20.423  25.271  1.00  0.00    +0.000 F 
ATOM     75  C54 UNL A   1      42.219  21.455  27.370  1.00  0.00    +0.000 C 
ATOM     76  F14 UNL A   1      41.850  20.282  27.904  1.00  0.00    +0.000 F 
ATOM     77  C55 UNL A   1      42.240  22.603  28.161  1.00  0.00    +0.000 C 
ATOM     78  F15 UNL A   1      41.880  22.508  29.450  1.00  0.00    +0.000 F 
ENDBRANCH   67   68
TORSDOF 20
ENDMDL
MODEL 7
REMARK VINA RESULT:      -7.6     30.873     37.951
ROOT
ATOM    129  H39 UNL A   1       2.370   8.254  37.185  1.00  0.00    +0.000 H 
ATOM    130  H40 UNL A   1       5.365   4.216  37.068  1.00  0.00    +0.000 H 
ATOM    131  H41 UNL A   1       3.445   2.985  35.904  1.00  0.00    +0.000 H 
ATOM    132  H42 UNL A   1      -2.364  11.154  36.615  1.00  0.00    +0.000 H 
ATOM    133  H43 UNL A   1      -0.354  12.507  37.444  1.00  0.00    +0.000 H 
ATOM     31  C26 UNL A   1       1.991  10.942  37.855  1.00  0.00    +0.000 C 
ATOM     32  C27 UNL A   1       0.676  10.492  37.285  1.00  0.00    +0.000 C 
ATOM     33  N3  UNL A   1       0.323   9.308  36.855  1.00  0.00    +0.000 N 
ATOM     34  C28 UNL A   1      -1.003   9.430  36.462  1.00  0.00    +0.000 C 
ATOM     35  C29 UNL A   1      -1.802   8.499  35.889  1.00  0.00    +0.000 C 
ATOM     47  C36 UNL A   1      -1.391   7.155  35.583  1.00  0.00    +0.000 C 
ATOM     48  C37 UNL A   1      -2.117   6.149  34.970  1.00  0.00    +0.000 C 
ATOM     49  C38 UNL A   1      -1.315   5.005  34.908  1.00  0.00    +0.000 C 
ATOM     50  C39 UNL A   1      -0.076   5.310  35.448  1.00  0.00    +0.000 C 
ATOM     51  N4  UNL A   1      -0.138   6.630  35.862  1.00  0.00    +0.000 N 
ATOM     52  C40 UNL A   1       1.078   4.459  35.578  1.00  0.00    +0.000 C 
ATOM     64  C47 UNL A   1       2.269   4.835  36.104  1.00  0.00    +0.000 C 
ATOM     65  N5  UNL A   1       2.644   6.070  36.615  1.00  0.00    +0.000 N 
ATOM     66  C48 UNL A   1       3.885   5.933  37.013  1.00  0.00    +0.000 C 
ATOM     67  C49 UNL A   1       4.799   6.955  37.630  1.00  0.00    +0.000 C 
ATOM     79  C56 UNL A   1       4.345   8.205  37.844  1.00  0.00    +0.000 C 
ATOM     80  C57 UNL A   1       5.114   9.299  38.428  1.00  0.00    +0.000 C 
ATOM     81  C58 UNL A   1       4.334  10.389  38.511  1.00  0.00    +0.000 C 
ATOM     82  C59 UNL A   1       3.018  10.077  37.953  1.00  0.00    +0.000 C 
ATOM     83  N6  UNL A   1       3.113   8.757  37.589  1.00  0.00    +0.000 N 
ATOM     84  C60 UNL A   1       4.435   4.584  36.816  1.00  0.00    +0.000 C 
ATOM     85  C61 UNL A   1       3.419   3.964  36.229  1.00  0.00    +0.000 C 
ATOM     86  C62 UNL A   1      -1.408  10.790  36.749  1.00  0.00    +0.000 C 
ATOM     87  C63 UNL A   1      -0.390  11.503  37.206  1.00  0.00    +0.000 C 
ATOM    124  H34 UNL A   1      -3.084   6.230  34.618  1.00  0.00    +0.000 H 
ATOM    125  H35 UNL A   1      -1.598   4.090  34.527  1.00  0.00    +0.000 H 
ATOM    126  H36 UNL A   1       0.598   7.124  36.293  1.00  0.00    +0.000 H 
ATOM    127  H37 UNL A   1       6.100   9.245  38.729  1.00  0.00    +0.000 H 
ATOM    128  H38 UNL A   1       4.616  11.300  38.904  1.00  0.00    +0.000 H 
ENDROOT
BRANCH   31   30
ATOM    134  H44 UNL A   1       1.569  11.859  40.335  1.00  0.00    +0.000 H 
ATOM    135  H45 UNL A   1       1.715  14.138  41.150  1.00  0.00    +0.000 H 
ATOM    123  H33 UNL A   1       2.735  13.168  36.503  1.00  0.00    +0.000 H 
ATOM     88  C64 UNL A   1       1.866  12.616  39.699  1.00  0.00    +0.000 C 
ATOM     89  C65 UNL A   1       1.985  13.918  40.180  1.00  0.00    +0.000 C 
ATOM    122  H32 UNL A   1       3.057  15.412  37.371  1.00  0.00    +0.000 H 
ATOM     27  C22 UNL A   1       2.471  14.927  39.343  1.00  0.00    +0.000 C 
ATOM     28  C23 UNL A   1       2.735  14.658  37.997  1.00  0.00    +0.000 C 
ATOM     29  C24 UNL A   1       2.560  13.364  37.501  1.00  0.00    +0.000 C 
ATOM     30  C25 UNL A   1       2.148  12.329  38.355  1.00  0.00    +0.000 C 
BRANCH   27   25
ATOM     25  C21 UNL A   1       2.690  16.299  39.849  1.00  0.00    +0.000 C 
ATOM     26  O3  UNL A   1       1.728  16.981  40.193  1.00  0.00    +0.000 O 
BRANCH   25   24
ATOM    121  H31 UNL A   1       4.233  17.376  39.165  1.00  0.00    +0.000 H 
ATOM     24  N2  UNL A   1       3.960  16.810  39.924  1.00  0.00    +0.000 N 
BRANCH   24   23
ATOM    119  H29 UNL A   1       4.864  17.434  41.670  1.00  0.00    +0.000 H 
ATOM     23  C20 UNL A   1       4.960  16.636  40.964  1.00  0.00    +0.000 C 
ATOM    120  H30 UNL A   1       4.793  15.686  41.424  1.00  0.00    +0.000 H 
BRANCH   23   22
ATOM    118  H28 UNL A   1       6.852  17.518  40.800  1.00  0.00    +0.000 H 
ATOM    117  H27 UNL A   1       6.317  16.640  39.338  1.00  0.00    +0.000 H 
ATOM     22  C19 UNL A   1       6.380  16.643  40.405  1.00  0.00    +0.000 C 
BRANCH   22   21
ATOM    115  H25 UNL A   1       7.848  15.167  39.997  1.00  0.00    +0.000 H 
ATOM    116  H26 UNL A   1       7.817  15.798  41.674  1.00  0.00    +0.000 H 
ATOM     21  C18 UNL A   1       7.248  15.457  40.834  1.00  0.00    +0.000 C 
BRANCH   21   20
ATOM    113  H23 UNL A   1       6.093  14.432  42.291  1.00  0.00    +0.000 H 
ATOM    114  H24 UNL A   1       5.728  14.032  40.584  1.00  0.00    +0.000 H 
ATOM     20  C17 UNL A   1       6.484  14.218  41.318  1.00  0.00    +0.000 C 
BRANCH   20   19
ATOM     19  C16 UNL A   1       7.311  12.934  41.411  1.00  0.00    +0.000 C 
ATOM    111  H21 UNL A   1       8.324  13.168  41.159  1.00  0.00    +0.000 H 
ATOM    112  H22 UNL A   1       7.205  12.573  42.413  1.00  0.00    +0.000 H 
BRANCH   19   18
ATOM     18  C15 UNL A   1       6.835  11.813  40.490  1.00  0.00    +0.000 C 
ATOM    109  H19 UNL A   1       6.838  10.891  41.033  1.00  0.00    +0.000 H 
ATOM    110  H20 UNL A   1       5.848  12.055  40.152  1.00  0.00    +0.000 H 
BRANCH   18   17
ATOM     17  N1  UNL A   1       7.691  11.677  39.326  1.00  0.00    +0.000 N 
ATOM    108  H18 UNL A   1       7.860  10.745  39.057  1.00  0.00    +0.000 H 
BRANCH   17   15
ATOM     15  C14 UNL A   1       8.303  12.608  38.531  1.00  0.00    +0.000 C 
ATOM     16  O2  UNL A   1       9.432  12.962  38.886  1.00  0.00    +0.000 O 
BRANCH   15   13
ATOM      2  C2  UNL A   1       8.482  16.345  33.729  1.00  0.00    +0.000 C 
ATOM      3  C3  UNL A   1       8.813  15.793  34.992  1.00  0.00    +0.000 C 
ATOM      5  C5  UNL A   1       8.187  14.604  35.413  1.00  0.00    +0.000 C 
ATOM      6  C6  UNL A   1       7.278  13.929  34.579  1.00  0.00    +0.000 C 
ATOM      7  C7  UNL A   1       6.909  14.496  33.342  1.00  0.00    +0.000 C 
ATOM    101  H11 UNL A   1       6.750  11.914  34.230  1.00  0.00    +0.000 H 
ATOM      9  C9  UNL A   1       7.514  15.696  32.940  1.00  0.00    +0.000 C 
ATOM    102  H12 UNL A   1       5.644  12.800  35.274  1.00  0.00    +0.000 H 
ATOM     11  C10 UNL A   1       6.670  12.627  35.025  1.00  0.00    +0.000 C 
ATOM     12  C11 UNL A   1       7.375  12.082  36.249  1.00  0.00    +0.000 C 
ATOM     13  C12 UNL A   1       7.600  13.196  37.273  1.00  0.00    +0.000 C 
ATOM    103  H13 UNL A   1       8.320  11.673  35.959  1.00  0.00    +0.000 H 
ATOM    104  H14 UNL A   1       6.766  11.321  36.691  1.00  0.00    +0.000 H 
ATOM     90  O4  UNL A   1       8.510  14.148  36.672  1.00  0.00    +0.000 O 
BRANCH    2    1
ATOM      1  C1  UNL A   1       9.186  17.595  33.265  1.00  0.00    +0.000 C 
ATOM     91  H1  UNL A   1      10.130  17.678  33.762  1.00  0.00    +0.000 H 
ATOM     92  H2  UNL A   1       8.585  18.449  33.494  1.00  0.00    +0.000 H 
ATOM     93  H3  UNL A   1       9.344  17.543  32.207  1.00  0.00    +0.000 H 
ENDBRANCH    2    1
BRANCH    3    4
ATOM      4  C4  UNL A   1       9.814  16.484  35.886  1.00  0.00    +0.000 C 
ATOM     94  H4  UNL A   1       9.639  16.201  36.903  1.00  0.00    +0.000 H 
ATOM     95  H5  UNL A   1       9.709  17.544  35.789  1.00  0.00    +0.000 H 
ATOM     96  H6  UNL A   1      10.805  16.197  35.603  1.00  0.00    +0.000 H 
ENDBRANCH    3    4
BRANCH    7    8
ATOM     97  H7  UNL A   1       5.014  13.584  33.059  1.00  0.00    +0.000 H 
ATOM     98  H8  UNL A   1       6.292  12.911  32.075  1.00  0.00    +0.000 H 
ATOM     99  H9  UNL A   1       5.604  14.465  31.670  1.00  0.00    +0.000 H 
ATOM      8  C8  UNL A   1       5.880  13.815  32.474  1.00  0.00    +0.000 C 
ENDBRANCH    7    8
BRANCH    9   10
ATOM     10  O1  UNL A   1       7.118  16.212  31.734  1.00  0.00    +0.000 O 
ATOM    100  H10 UNL A   1       7.318  15.754  30.941  1.00  0.00    +0.000 H 
ENDBRANCH    9   10
BRANCH   13   14
ATOM    105  H15 UNL A   1       5.748  14.223  36.899  1.00  0.00    +0.000 H 
ATOM    106  H16 UNL A   1       6.683  14.900  38.211  1.00  0.00    +0.000 H 
ATOM    107  H17 UNL A   1       5.807  13.406  38.442  1.00  0.00    +0.000 H 
ATOM     14  C13 UNL A   1       6.365  13.992  37.742  1.00  0.00    +0.000 C 
ENDBRANCH   13   14
ENDBRANCH   15   13
ENDBRANCH   17   15
ENDBRANCH   18   17
ENDBRANCH   19   18
ENDBRANCH   20   19
ENDBRANCH   21   20
ENDBRANCH   22   21
ENDBRANCH   23   22
ENDBRANCH   24   23
ENDBRANCH   25   24
ENDBRANCH   27   25
ENDBRANCH   31   30
BRANCH   35   36
ATOM     36  C30 UNL A   1      -3.203   8.906  35.544  1.00  0.00    +0.000 C 
ATOM     37  C31 UNL A   1      -3.519   9.437  34.284  1.00  0.00    +0.000 C 
ATOM     38  F1  UNL A   1      -2.552   9.646  33.379  1.00  0.00    +0.000 F 
ATOM     39  C32 UNL A   1      -4.829   9.785  33.962  1.00  0.00    +0.000 C 
ATOM     40  F2  UNL A   1      -5.100  10.326  32.766  1.00  0.00    +0.000 F 
ATOM     41  C33 UNL A   1      -5.849   9.581  34.878  1.00  0.00    +0.000 C 
ATOM     42  F3  UNL A   1      -7.109   9.907  34.563  1.00  0.00    +0.000 F 
ATOM     43  C34 UNL A   1      -5.561   9.044  36.124  1.00  0.00    +0.000 C 
ATOM     44  F4  UNL A   1      -6.547   8.837  37.008  1.00  0.00    +0.000 F 
ATOM     45  C35 UNL A   1      -4.248   8.719  36.461  1.00  0.00    +0.000 C 
ATOM     46  F5  UNL A   1      -4.001   8.211  37.676  1.00  0.00    +0.000 F 
ENDBRANCH   35   36
BRANCH   52   53
ATOM     53  C41 UNL A   1       0.957   3.050  35.081  1.00  0.00    +0.000 C 
ATOM     54  C42 UNL A   1       0.379   2.045  35.870  1.00  0.00    +0.000 C 
ATOM     55  F6  UNL A   1      -0.006   2.312  37.126  1.00  0.00    +0.000 F 
ATOM     56  C43 UNL A   1       0.216   0.754  35.375  1.00  0.00    +0.000 C 
ATOM     57  F7  UNL A   1      -0.311  -0.199  36.156  1.00  0.00    +0.000 F 
ATOM     58  C44 UNL A   1       0.604   0.451  34.078  1.00  0.00    +0.000 C 
ATOM     59  F8  UNL A   1       0.434  -0.789  33.599  1.00  0.00    +0.000 F 
ATOM     60  C45 UNL A   1       1.172   1.432  33.279  1.00  0.00    +0.000 C 
ATOM     61  F9  UNL A   1       1.535   1.144  32.022  1.00  0.00    +0.000 F 
ATOM     62  C46 UNL A   1       1.357   2.718  33.778  1.00  0.00    +0.000 C 
ATOM     63  F10 UNL A   1       1.909   3.646  32.983  1.00  0.00    +0.000 F 
ENDBRANCH   52   53
BRANCH   67   68
ATOM     68  C50 UNL A   1       6.203   6.616  37.971  1.00  0.00    +0.000 C 
ATOM     69  C51 UNL A   1       7.247   6.923  37.088  1.00  0.00    +0.000 C 
ATOM     70  F11 UNL A   1       6.975   7.489  35.903  1.00  0.00    +0.000 F 
ATOM     71  C52 UNL A   1       8.570   6.623  37.405  1.00  0.00    +0.000 C 
ATOM     72  F12 UNL A   1       9.545   6.901  36.531  1.00  0.00    +0.000 F 
ATOM     73  C53 UNL A   1       8.877   6.033  38.622  1.00  0.00    +0.000 C 
ATOM     74  F13 UNL A   1      10.150   5.755  38.932  1.00  0.00    +0.000 F 
ATOM     75  C54 UNL A   1       7.861   5.726  39.515  1.00  0.00    +0.000 C 
ATOM     76  F14 UNL A   1       8.155   5.166  40.697  1.00  0.00    +0.000 F 
ATOM     77  C55 UNL A   1       6.535   6.004  39.189  1.00  0.00    +0.000 C 
ATOM     78  F15 UNL A   1       5.573   5.695  40.070  1.00  0.00    +0.000 F 
ENDBRANCH   67   68
TORSDOF 20
ENDMDL
MODEL 8
REMARK VINA RESULT:      -7.6      7.806     14.412
ROOT
ATOM    129  H39 UNL A   1      28.357  37.001  45.382  1.00  0.00    +0.000 H 
ATOM    130  H40 UNL A   1      32.957  37.570  43.433  1.00  0.00    +0.000 H 
ATOM    131  H41 UNL A   1      33.269  39.516  45.067  1.00  0.00    +0.000 H 
ATOM    132  H42 UNL A   1      23.899  38.288  48.483  1.00  0.00    +0.000 H 
ATOM    133  H43 UNL A   1      23.692  36.126  47.128  1.00  0.00    +0.000 H 
ATOM     31  C26 UNL A   1      25.938  35.602  45.456  1.00  0.00    +0.000 C 
ATOM     32  C27 UNL A   1      25.773  36.717  46.447  1.00  0.00    +0.000 C 
ATOM     33  N3  UNL A   1      26.608  37.675  46.761  1.00  0.00    +0.000 N 
ATOM     34  C28 UNL A   1      25.952  38.451  47.707  1.00  0.00    +0.000 C 
ATOM     35  C29 UNL A   1      26.420  39.525  48.387  1.00  0.00    +0.000 C 
ATOM     47  C36 UNL A   1      27.740  40.074  48.229  1.00  0.00    +0.000 C 
ATOM     48  C37 UNL A   1      28.318  41.138  48.899  1.00  0.00    +0.000 C 
ATOM     49  C38 UNL A   1      29.608  41.326  48.392  1.00  0.00    +0.000 C 
ATOM     50  C39 UNL A   1      29.847  40.354  47.433  1.00  0.00    +0.000 C 
ATOM     51  N4  UNL A   1      28.691  39.597  47.340  1.00  0.00    +0.000 N 
ATOM     52  C40 UNL A   1      31.041  40.136  46.658  1.00  0.00    +0.000 C 
ATOM     64  C47 UNL A   1      31.208  39.148  45.746  1.00  0.00    +0.000 C 
ATOM     65  N5  UNL A   1      30.314  38.158  45.360  1.00  0.00    +0.000 N 
ATOM     66  C48 UNL A   1      30.931  37.453  44.444  1.00  0.00    +0.000 C 
ATOM     67  C49 UNL A   1      30.443  36.246  43.692  1.00  0.00    +0.000 C 
ATOM     79  C56 UNL A   1      29.206  35.771  43.933  1.00  0.00    +0.000 C 
ATOM     80  C57 UNL A   1      28.601  34.611  43.286  1.00  0.00    +0.000 C 
ATOM     81  C58 UNL A   1      27.353  34.449  43.755  1.00  0.00    +0.000 C 
ATOM     82  C59 UNL A   1      27.085  35.476  44.761  1.00  0.00    +0.000 C 
ATOM     83  N6  UNL A   1      28.237  36.220  44.796  1.00  0.00    +0.000 N 
ATOM     84  C60 UNL A   1      32.285  37.930  44.128  1.00  0.00    +0.000 C 
ATOM     85  C61 UNL A   1      32.416  38.944  44.973  1.00  0.00    +0.000 C 
ATOM     86  C62 UNL A   1      24.633  37.884  47.882  1.00  0.00    +0.000 C 
ATOM     87  C63 UNL A   1      24.492  36.777  47.168  1.00  0.00    +0.000 C 
ATOM    124  H34 UNL A   1      27.874  41.696  49.644  1.00  0.00    +0.000 H 
ATOM    125  H35 UNL A   1      30.268  42.063  48.681  1.00  0.00    +0.000 H 
ATOM    126  H36 UNL A   1      28.563  38.832  46.731  1.00  0.00    +0.000 H 
ATOM    127  H37 UNL A   1      29.059  34.011  42.582  1.00  0.00    +0.000 H 
ATOM    128  H38 UNL A   1      26.691  33.717  43.455  1.00  0.00    +0.000 H 
ENDROOT
BRANCH   31   30
ATOM    134  H44 UNL A   1      23.861  35.915  43.795  1.00  0.00    +0.000 H 
ATOM    135  H45 UNL A   1      21.967  34.442  43.446  1.00  0.00    +0.000 H 
ATOM    123  H33 UNL A   1      25.464  33.177  46.567  1.00  0.00    +0.000 H 
ATOM     88  C64 UNL A   1      23.809  35.014  44.295  1.00  0.00    +0.000 C 
ATOM     89  C65 UNL A   1      22.739  34.153  44.064  1.00  0.00    +0.000 C 
ATOM    122  H32 UNL A   1      23.662  31.627  46.075  1.00  0.00    +0.000 H 
ATOM     27  C22 UNL A   1      22.715  32.894  44.674  1.00  0.00    +0.000 C 
ATOM     28  C23 UNL A   1      23.703  32.541  45.597  1.00  0.00    +0.000 C 
ATOM     29  C24 UNL A   1      24.745  33.428  45.871  1.00  0.00    +0.000 C 
ATOM     30  C25 UNL A   1      24.819  34.661  45.203  1.00  0.00    +0.000 C 
BRANCH   27   25
ATOM     25  C21 UNL A   1      21.636  31.926  44.381  1.00  0.00    +0.000 C 
ATOM     26  O3  UNL A   1      21.828  30.727  44.568  1.00  0.00    +0.000 O 
BRANCH   25   24
ATOM    121  H31 UNL A   1      20.476  32.875  43.054  1.00  0.00    +0.000 H 
ATOM     24  N2  UNL A   1      20.431  32.365  43.895  1.00  0.00    +0.000 N 
BRANCH   24   23
ATOM    119  H29 UNL A   1      19.186  31.906  45.475  1.00  0.00    +0.000 H 
ATOM     23  C20 UNL A   1      19.099  32.184  44.445  1.00  0.00    +0.000 C 
ATOM    120  H30 UNL A   1      18.569  33.106  44.333  1.00  0.00    +0.000 H 
BRANCH   23   22
ATOM    118  H28 UNL A   1      18.728  31.049  42.724  1.00  0.00    +0.000 H 
ATOM    117  H27 UNL A   1      17.280  31.373  43.722  1.00  0.00    +0.000 H 
ATOM     22  C19 UNL A   1      18.314  31.101  43.710  1.00  0.00    +0.000 C 
BRANCH   22   21
ATOM    115  H25 UNL A   1      19.480  29.433  44.309  1.00  0.00    +0.000 H 
ATOM    116  H26 UNL A   1      18.004  29.745  45.277  1.00  0.00    +0.000 H 
ATOM     21  C18 UNL A   1      18.443  29.695  44.302  1.00  0.00    +0.000 C 
BRANCH   21   20
ATOM    113  H23 UNL A   1      18.378  28.086  42.917  1.00  0.00    +0.000 H 
ATOM    114  H24 UNL A   1      17.259  27.962  44.311  1.00  0.00    +0.000 H 
ATOM     20  C17 UNL A   1      17.683  28.591  43.556  1.00  0.00    +0.000 C 
BRANCH   20   19
ATOM     19  C16 UNL A   1      16.511  29.071  42.695  1.00  0.00    +0.000 C 
ATOM    111  H21 UNL A   1      16.529  30.140  42.671  1.00  0.00    +0.000 H 
ATOM    112  H22 UNL A   1      16.640  28.631  41.729  1.00  0.00    +0.000 H 
BRANCH   19   18
ATOM     18  C15 UNL A   1      15.140  28.626  43.199  1.00  0.00    +0.000 C 
ATOM    109  H19 UNL A   1      15.168  28.553  44.266  1.00  0.00    +0.000 H 
ATOM    110  H20 UNL A   1      14.417  29.350  42.884  1.00  0.00    +0.000 H 
BRANCH   18   17
ATOM     17  N1  UNL A   1      14.759  27.338  42.649  1.00  0.00    +0.000 N 
ATOM    108  H18 UNL A   1      14.359  27.386  41.751  1.00  0.00    +0.000 H 
BRANCH   17   15
ATOM     15  C14 UNL A   1      14.857  26.068  43.150  1.00  0.00    +0.000 C 
ATOM     16  O2  UNL A   1      15.547  25.941  44.167  1.00  0.00    +0.000 O 
BRANCH   15   13
ATOM      2  C2  UNL A   1      14.408  22.361  38.342  1.00  0.00    +0.000 C 
ATOM      3  C3  UNL A   1      14.745  23.508  39.105  1.00  0.00    +0.000 C 
ATOM      5  C5  UNL A   1      14.484  23.519  40.489  1.00  0.00    +0.000 C 
ATOM      6  C6  UNL A   1      13.942  22.392  41.133  1.00  0.00    +0.000 C 
ATOM      7  C7  UNL A   1      13.562  21.267  40.374  1.00  0.00    +0.000 C 
ATOM    101  H11 UNL A   1      14.128  21.502  43.039  1.00  0.00    +0.000 H 
ATOM      9  C9  UNL A   1      13.797  21.273  38.991  1.00  0.00    +0.000 C 
ATOM    102  H12 UNL A   1      12.682  22.481  42.815  1.00  0.00    +0.000 H 
ATOM     11  C10 UNL A   1      13.732  22.405  42.623  1.00  0.00    +0.000 C 
ATOM     12  C11 UNL A   1      14.422  23.589  43.266  1.00  0.00    +0.000 C 
ATOM     13  C12 UNL A   1      14.159  24.862  42.458  1.00  0.00    +0.000 C 
ATOM    103  H13 UNL A   1      15.477  23.406  43.301  1.00  0.00    +0.000 H 
ATOM    104  H14 UNL A   1      14.040  23.720  44.256  1.00  0.00    +0.000 H 
ATOM     90  O4  UNL A   1      14.783  24.681  41.165  1.00  0.00    +0.000 O 
BRANCH    2    1
ATOM      1  C1  UNL A   1      14.728  22.339  36.869  1.00  0.00    +0.000 C 
ATOM     91  H1  UNL A   1      15.754  22.067  36.731  1.00  0.00    +0.000 H 
ATOM     92  H2  UNL A   1      14.556  23.308  36.451  1.00  0.00    +0.000 H 
ATOM     93  H3  UNL A   1      14.102  21.622  36.379  1.00  0.00    +0.000 H 
ENDBRANCH    2    1
BRANCH    3    4
ATOM      4  C4  UNL A   1      15.361  24.714  38.437  1.00  0.00    +0.000 C 
ATOM     94  H4  UNL A   1      15.654  25.424  39.182  1.00  0.00    +0.000 H 
ATOM     95  H5  UNL A   1      14.645  25.163  37.780  1.00  0.00    +0.000 H 
ATOM     96  H6  UNL A   1      16.220  24.412  37.876  1.00  0.00    +0.000 H 
ENDBRANCH    3    4
BRANCH    7    8
ATOM     97  H7  UNL A   1      11.916  19.965  40.681  1.00  0.00    +0.000 H 
ATOM     98  H8  UNL A   1      12.888  20.245  42.106  1.00  0.00    +0.000 H 
ATOM     99  H9  UNL A   1      13.478  19.199  40.836  1.00  0.00    +0.000 H 
ATOM      8  C8  UNL A   1      12.914  20.083  41.048  1.00  0.00    +0.000 C 
ENDBRANCH    7    8
BRANCH    9   10
ATOM     10  O1  UNL A   1      13.404  20.160  38.295  1.00  0.00    +0.000 O 
ATOM    100  H10 UNL A   1      12.640  19.686  38.563  1.00  0.00    +0.000 H 
ENDBRANCH    9   10
BRANCH   13   14
ATOM    105  H15 UNL A   1      12.264  25.660  43.086  1.00  0.00    +0.000 H 
ATOM    106  H16 UNL A   1      12.137  24.373  41.910  1.00  0.00    +0.000 H 
ATOM    107  H17 UNL A   1      12.643  25.969  41.408  1.00  0.00    +0.000 H 
ATOM     14  C13 UNL A   1      12.689  25.246  42.196  1.00  0.00    +0.000 C 
ENDBRANCH   13   14
ENDBRANCH   15   13
ENDBRANCH   17   15
ENDBRANCH   18   17
ENDBRANCH   19   18
ENDBRANCH   20   19
ENDBRANCH   21   20
ENDBRANCH   22   21
ENDBRANCH   23   22
ENDBRANCH   24   23
ENDBRANCH   25   24
ENDBRANCH   27   25
ENDBRANCH   31   30
BRANCH   35   36
ATOM     36  C30 UNL A   1      25.499  40.173  49.376  1.00  0.00    +0.000 C 
ATOM     37  C31 UNL A   1      25.477  39.776  50.722  1.00  0.00    +0.000 C 
ATOM     38  F1  UNL A   1      26.248  38.759  51.137  1.00  0.00    +0.000 F 
ATOM     39  C32 UNL A   1      24.640  40.403  51.641  1.00  0.00    +0.000 C 
ATOM     40  F2  UNL A   1      24.609  39.981  52.912  1.00  0.00    +0.000 F 
ATOM     41  C33 UNL A   1      23.832  41.456  51.240  1.00  0.00    +0.000 C 
ATOM     42  F3  UNL A   1      23.034  42.064  52.127  1.00  0.00    +0.000 F 
ATOM     43  C34 UNL A   1      23.847  41.874  49.918  1.00  0.00    +0.000 C 
ATOM     44  F4  UNL A   1      23.074  42.899  49.531  1.00  0.00    +0.000 F 
ATOM     45  C35 UNL A   1      24.664  41.233  48.990  1.00  0.00    +0.000 C 
ATOM     46  F5  UNL A   1      24.650  41.653  47.717  1.00  0.00    +0.000 F 
ENDBRANCH   35   36
BRANCH   52   53
ATOM     53  C41 UNL A   1      32.194  41.066  46.888  1.00  0.00    +0.000 C 
ATOM     54  C42 UNL A   1      32.188  42.373  46.380  1.00  0.00    +0.000 C 
ATOM     55  F6  UNL A   1      31.178  42.791  45.604  1.00  0.00    +0.000 F 
ATOM     56  C43 UNL A   1      33.238  43.248  46.650  1.00  0.00    +0.000 C 
ATOM     57  F7  UNL A   1      33.227  44.483  46.130  1.00  0.00    +0.000 F 
ATOM     58  C44 UNL A   1      34.294  42.842  47.452  1.00  0.00    +0.000 C 
ATOM     59  F8  UNL A   1      35.296  43.691  47.723  1.00  0.00    +0.000 F 
ATOM     60  C45 UNL A   1      34.315  41.555  47.970  1.00  0.00    +0.000 C 
ATOM     61  F9  UNL A   1      35.328  41.167  48.755  1.00  0.00    +0.000 F 
ATOM     62  C46 UNL A   1      33.280  40.671  47.682  1.00  0.00    +0.000 C 
ATOM     63  F10 UNL A   1      33.326  39.433  48.196  1.00  0.00    +0.000 F 
ENDBRANCH   52   53
BRANCH   67   68
ATOM     68  C50 UNL A   1      31.320  35.549  42.717  1.00  0.00    +0.000 C 
ATOM     69  C51 UNL A   1      32.086  34.442  43.108  1.00  0.00    +0.000 C 
ATOM     70  F11 UNL A   1      32.062  34.032  44.385  1.00  0.00    +0.000 F 
ATOM     71  C52 UNL A   1      32.899  33.772  42.198  1.00  0.00    +0.000 C 
ATOM     72  F12 UNL A   1      33.642  32.735  42.604  1.00  0.00    +0.000 F 
ATOM     73  C53 UNL A   1      32.944  34.180  40.873  1.00  0.00    +0.000 C 
ATOM     74  F13 UNL A   1      33.718  33.528  39.995  1.00  0.00    +0.000 F 
ATOM     75  C54 UNL A   1      32.189  35.268  40.461  1.00  0.00    +0.000 C 
ATOM     76  F14 UNL A   1      32.222  35.659  39.179  1.00  0.00    +0.000 F 
ATOM     77  C55 UNL A   1      31.394  35.955  41.377  1.00  0.00    +0.000 C 
ATOM     78  F15 UNL A   1      30.676  37.005  40.952  1.00  0.00    +0.000 F 
ENDBRANCH   67   68
TORSDOF 20
ENDMDL
MODEL 9
REMARK VINA RESULT:      -7.6      7.708     14.265
ROOT
ATOM    129  H39 UNL A   1      28.251  37.560  45.584  1.00  0.00    +0.000 H 
ATOM    130  H40 UNL A   1      32.980  37.358  43.886  1.00  0.00    +0.000 H 
ATOM    131  H41 UNL A   1      33.480  39.347  45.418  1.00  0.00    +0.000 H 
ATOM    132  H42 UNL A   1      23.866  39.652  48.330  1.00  0.00    +0.000 H 
ATOM    133  H43 UNL A   1      23.426  37.453  47.094  1.00  0.00    +0.000 H 
ATOM     31  C26 UNL A   1      25.658  36.515  45.593  1.00  0.00    +0.000 C 
ATOM     32  C27 UNL A   1      25.602  37.706  46.506  1.00  0.00    +0.000 C 
ATOM     33  N3  UNL A   1      26.547  38.558  46.812  1.00  0.00    +0.000 N 
ATOM     34  C28 UNL A   1      25.960  39.478  47.670  1.00  0.00    +0.000 C 
ATOM     35  C29 UNL A   1      26.538  40.520  48.313  1.00  0.00    +0.000 C 
ATOM     47  C36 UNL A   1      27.929  40.870  48.203  1.00  0.00    +0.000 C 
ATOM     48  C37 UNL A   1      28.616  41.886  48.843  1.00  0.00    +0.000 C 
ATOM     49  C38 UNL A   1      29.944  41.861  48.404  1.00  0.00    +0.000 C 
ATOM     50  C39 UNL A   1      30.093  40.804  47.521  1.00  0.00    +0.000 C 
ATOM     51  N4  UNL A   1      28.848  40.208  47.402  1.00  0.00    +0.000 N 
ATOM     52  C40 UNL A   1      31.282  40.372  46.833  1.00  0.00    +0.000 C 
ATOM     64  C47 UNL A   1      31.354  39.312  45.992  1.00  0.00    +0.000 C 
ATOM     65  N5  UNL A   1      30.351  38.431  45.612  1.00  0.00    +0.000 N 
ATOM     66  C48 UNL A   1      30.908  37.588  44.778  1.00  0.00    +0.000 C 
ATOM     67  C49 UNL A   1      30.294  36.413  44.070  1.00  0.00    +0.000 C 
ATOM     79  C56 UNL A   1      28.992  36.131  44.263  1.00  0.00    +0.000 C 
ATOM     80  C57 UNL A   1      28.263  35.024  43.650  1.00  0.00    +0.000 C 
ATOM     81  C58 UNL A   1      26.982  35.067  44.052  1.00  0.00    +0.000 C 
ATOM     82  C59 UNL A   1      26.810  36.186  44.978  1.00  0.00    +0.000 C 
ATOM     83  N6  UNL A   1      28.053  36.765  45.038  1.00  0.00    +0.000 N 
ATOM     84  C60 UNL A   1      32.331  37.852  44.517  1.00  0.00    +0.000 C 
ATOM     85  C61 UNL A   1      32.560  38.893  45.307  1.00  0.00    +0.000 C 
ATOM     86  C62 UNL A   1      24.566  39.111  47.798  1.00  0.00    +0.000 C 
ATOM     87  C63 UNL A   1      24.306  37.989  47.143  1.00  0.00    +0.000 C 
ATOM    124  H34 UNL A   1      28.218  42.549  49.526  1.00  0.00    +0.000 H 
ATOM    125  H35 UNL A   1      30.687  42.517  48.690  1.00  0.00    +0.000 H 
ATOM    126  H36 UNL A   1      28.645  39.430  46.833  1.00  0.00    +0.000 H 
ATOM    127  H37 UNL A   1      28.667  34.322  43.011  1.00  0.00    +0.000 H 
ATOM    128  H38 UNL A   1      26.239  34.416  43.755  1.00  0.00    +0.000 H 
ENDROOT
BRANCH   31   30
ATOM    134  H44 UNL A   1      24.847  34.274  46.814  1.00  0.00    +0.000 H 
ATOM    135  H45 UNL A   1      22.905  32.905  46.329  1.00  0.00    +0.000 H 
ATOM    123  H33 UNL A   1      23.714  36.943  43.757  1.00  0.00    +0.000 H 
ATOM     88  C64 UNL A   1      24.185  34.560  46.075  1.00  0.00    +0.000 C 
ATOM     89  C65 UNL A   1      23.051  33.792  45.824  1.00  0.00    +0.000 C 
ATOM    122  H32 UNL A   1      21.678  35.669  43.403  1.00  0.00    +0.000 H 
ATOM     27  C22 UNL A   1      22.109  34.226  44.886  1.00  0.00    +0.000 C 
ATOM     28  C23 UNL A   1      22.355  35.371  44.122  1.00  0.00    +0.000 C 
ATOM     29  C24 UNL A   1      23.521  36.109  44.334  1.00  0.00    +0.000 C 
ATOM     30  C25 UNL A   1      24.432  35.723  45.329  1.00  0.00    +0.000 C 
BRANCH   27   25
ATOM     25  C21 UNL A   1      20.855  33.477  44.660  1.00  0.00    +0.000 C 
ATOM     26  O3  UNL A   1      19.973  33.964  43.958  1.00  0.00    +0.000 O 
BRANCH   25   24
ATOM    121  H31 UNL A   1      20.372  32.264  46.178  1.00  0.00    +0.000 H 
ATOM     24  N2  UNL A   1      20.675  32.247  45.241  1.00  0.00    +0.000 N 
BRANCH   24   23
ATOM    119  H29 UNL A   1      21.169  31.032  43.649  1.00  0.00    +0.000 H 
ATOM     23  C20 UNL A   1      20.867  30.925  44.670  1.00  0.00    +0.000 C 
ATOM    120  H30 UNL A   1      21.614  30.424  45.247  1.00  0.00    +0.000 H 
BRANCH   23   22
ATOM    118  H28 UNL A   1      19.541  29.681  45.708  1.00  0.00    +0.000 H 
ATOM    117  H27 UNL A   1      19.660  29.338  43.957  1.00  0.00    +0.000 H 
ATOM     22  C19 UNL A   1      19.594  30.086  44.719  1.00  0.00    +0.000 C 
BRANCH   22   21
ATOM    115  H25 UNL A   1      17.720  30.804  45.407  1.00  0.00    +0.000 H 
ATOM    116  H26 UNL A   1      18.590  31.865  44.253  1.00  0.00    +0.000 H 
ATOM     21  C18 UNL A   1      18.295  30.868  44.507  1.00  0.00    +0.000 C 
BRANCH   21   20
ATOM    113  H23 UNL A   1      16.595  31.066  43.249  1.00  0.00    +0.000 H 
ATOM    114  H24 UNL A   1      18.049  30.346  42.489  1.00  0.00    +0.000 H 
ATOM     20  C17 UNL A   1      17.413  30.383  43.349  1.00  0.00    +0.000 C 
BRANCH   20   19
ATOM     19  C16 UNL A   1      16.837  28.974  43.511  1.00  0.00    +0.000 C 
ATOM    111  H21 UNL A   1      17.627  28.269  43.362  1.00  0.00    +0.000 H 
ATOM    112  H22 UNL A   1      16.417  28.925  44.495  1.00  0.00    +0.000 H 
BRANCH   19   18
ATOM     18  C15 UNL A   1      15.709  28.642  42.537  1.00  0.00    +0.000 C 
ATOM    109  H19 UNL A   1      14.809  29.115  42.872  1.00  0.00    +0.000 H 
ATOM    110  H20 UNL A   1      15.989  28.998  41.567  1.00  0.00    +0.000 H 
BRANCH   18   17
ATOM     17  N1  UNL A   1      15.483  27.211  42.446  1.00  0.00    +0.000 N 
ATOM    108  H18 UNL A   1      16.051  26.755  41.785  1.00  0.00    +0.000 H 
BRANCH   17   15
ATOM     15  C14 UNL A   1      14.625  26.380  43.115  1.00  0.00    +0.000 C 
ATOM     16  O2  UNL A   1      14.380  26.688  44.286  1.00  0.00    +0.000 O 
BRANCH   15   13
ATOM      2  C2  UNL A   1      14.396  22.645  38.314  1.00  0.00    +0.000 C 
ATOM      3  C3  UNL A   1      14.647  23.818  39.071  1.00  0.00    +0.000 C 
ATOM      5  C5  UNL A   1      14.419  23.806  40.460  1.00  0.00    +0.000 C 
ATOM      6  C6  UNL A   1      13.998  22.635  41.115  1.00  0.00    +0.000 C 
ATOM      7  C7  UNL A   1      13.702  21.480  40.364  1.00  0.00    +0.000 C 
ATOM    101  H11 UNL A   1      14.310  21.767  43.015  1.00  0.00    +0.000 H 
ATOM      9  C9  UNL A   1      13.902  21.506  38.975  1.00  0.00    +0.000 C 
ATOM    102  H12 UNL A   1      12.776  22.610  42.828  1.00  0.00    +0.000 H 
ATOM     11  C10 UNL A   1      13.823  22.630  42.610  1.00  0.00    +0.000 C 
ATOM     12  C11 UNL A   1      14.419  23.872  43.238  1.00  0.00    +0.000 C 
ATOM     13  C12 UNL A   1      14.022  25.115  42.439  1.00  0.00    +0.000 C 
ATOM    103  H13 UNL A   1      15.486  23.785  43.247  1.00  0.00    +0.000 H 
ATOM    104  H14 UNL A   1      14.050  23.968  44.237  1.00  0.00    +0.000 H 
ATOM     90  O4  UNL A   1      14.628  24.991  41.130  1.00  0.00    +0.000 O 
BRANCH    2    1
ATOM      1  C1  UNL A   1      14.681  22.650  36.833  1.00  0.00    +0.000 C 
ATOM     91  H1  UNL A   1      13.759  22.626  36.292  1.00  0.00    +0.000 H 
ATOM     92  H2  UNL A   1      15.266  21.791  36.579  1.00  0.00    +0.000 H 
ATOM     93  H3  UNL A   1      15.221  23.538  36.578  1.00  0.00    +0.000 H 
ENDBRANCH    2    1
BRANCH    3    4
ATOM      4  C4  UNL A   1      15.135  25.074  38.389  1.00  0.00    +0.000 C 
ATOM     94  H4  UNL A   1      14.331  25.778  38.321  1.00  0.00    +0.000 H 
ATOM     95  H5  UNL A   1      15.483  24.835  37.406  1.00  0.00    +0.000 H 
ATOM     96  H6  UNL A   1      15.935  25.501  38.957  1.00  0.00    +0.000 H 
ENDBRANCH    3    4
BRANCH    7    8
ATOM     97  H7  UNL A   1      12.691  19.615  40.336  1.00  0.00    +0.000 H 
ATOM     98  H8  UNL A   1      12.484  20.525  41.814  1.00  0.00    +0.000 H 
ATOM     99  H9  UNL A   1      13.996  19.709  41.494  1.00  0.00    +0.000 H 
ATOM      8  C8  UNL A   1      13.181  20.242  41.052  1.00  0.00    +0.000 C 
ENDBRANCH    7    8
BRANCH    9   10
ATOM     10  O1  UNL A   1      13.595  20.362  38.288  1.00  0.00    +0.000 O 
ATOM    100  H10 UNL A   1      14.207  19.652  38.261  1.00  0.00    +0.000 H 
ENDBRANCH    9   10
BRANCH   13   14
ATOM    105  H15 UNL A   1      12.384  25.982  41.349  1.00  0.00    +0.000 H 
ATOM    106  H16 UNL A   1      12.104  25.856  43.069  1.00  0.00    +0.000 H 
ATOM    107  H17 UNL A   1      12.018  24.429  42.064  1.00  0.00    +0.000 H 
ATOM     14  C13 UNL A   1      12.517  25.364  42.212  1.00  0.00    +0.000 C 
ENDBRANCH   13   14
ENDBRANCH   15   13
ENDBRANCH   17   15
ENDBRANCH   18   17
ENDBRANCH   19   18
ENDBRANCH   20   19
ENDBRANCH   21   20
ENDBRANCH   22   21
ENDBRANCH   23   22
ENDBRANCH   24   23
ENDBRANCH   25   24
ENDBRANCH   27   25
ENDBRANCH   31   30
BRANCH   35   36
ATOM     36  C30 UNL A   1      25.668  41.353  49.205  1.00  0.00    +0.000 C 
ATOM     37  C31 UNL A   1      24.974  42.469  48.712  1.00  0.00    +0.000 C 
ATOM     38  F1  UNL A   1      25.126  42.846  47.433  1.00  0.00    +0.000 F 
ATOM     39  C32 UNL A   1      24.145  43.221  49.540  1.00  0.00    +0.000 C 
ATOM     40  F2  UNL A   1      23.523  44.305  49.056  1.00  0.00    +0.000 F 
ATOM     41  C33 UNL A   1      23.970  42.856  50.866  1.00  0.00    +0.000 C 
ATOM     42  F3  UNL A   1      23.164  43.574  51.659  1.00  0.00    +0.000 F 
ATOM     43  C34 UNL A   1      24.635  41.748  51.371  1.00  0.00    +0.000 C 
ATOM     44  F4  UNL A   1      24.459  41.387  52.650  1.00  0.00    +0.000 F 
ATOM     45  C35 UNL A   1      25.486  41.009  50.552  1.00  0.00    +0.000 C 
ATOM     46  F5  UNL A   1      26.123  39.950  51.072  1.00  0.00    +0.000 F 
ENDBRANCH   35   36
BRANCH   52   53
ATOM     53  C41 UNL A   1      32.542  41.148  47.077  1.00  0.00    +0.000 C 
ATOM     54  C42 UNL A   1      33.497  40.715  48.008  1.00  0.00    +0.000 C 
ATOM     55  F6  UNL A   1      33.261  39.632  48.762  1.00  0.00    +0.000 F 
ATOM     56  C43 UNL A   1      34.690  41.411  48.182  1.00  0.00    +0.000 C 
ATOM     57  F7  UNL A   1      35.576  40.997  49.098  1.00  0.00    +0.000 F 
ATOM     58  C44 UNL A   1      34.961  42.533  47.412  1.00  0.00    +0.000 C 
ATOM     59  F8  UNL A   1      36.116  43.193  47.572  1.00  0.00    +0.000 F 
ATOM     60  C45 UNL A   1      34.032  42.974  46.481  1.00  0.00    +0.000 C 
ATOM     61  F9  UNL A   1      34.298  44.050  45.729  1.00  0.00    +0.000 F 
ATOM     62  C46 UNL A   1      32.828  42.294  46.322  1.00  0.00    +0.000 C 
ATOM     63  F10 UNL A   1      31.948  42.744  45.414  1.00  0.00    +0.000 F 
ENDBRANCH   52   53
BRANCH   67   68
ATOM     68  C50 UNL A   1      31.112  35.539  43.192  1.00  0.00    +0.000 C 
ATOM     69  C51 UNL A   1      31.334  35.879  41.850  1.00  0.00    +0.000 C 
ATOM     70  F11 UNL A   1      30.768  36.983  41.340  1.00  0.00    +0.000 F 
ATOM     71  C52 UNL A   1      32.113  35.075  41.023  1.00  0.00    +0.000 C 
ATOM     72  F12 UNL A   1      32.285  35.409  39.737  1.00  0.00    +0.000 F 
ATOM     73  C53 UNL A   1      32.704  33.926  41.526  1.00  0.00    +0.000 C 
ATOM     74  F13 UNL A   1      33.463  33.157  40.733  1.00  0.00    +0.000 F 
ATOM     75  C54 UNL A   1      32.505  33.572  42.852  1.00  0.00    +0.000 C 
ATOM     76  F14 UNL A   1      33.085  32.468  43.345  1.00  0.00    +0.000 F 
ATOM     77  C55 UNL A   1      31.707  34.364  43.675  1.00  0.00    +0.000 C 
ATOM     78  F15 UNL A   1      31.529  33.997  44.953  1.00  0.00    +0.000 F 
ENDBRANCH   67   68
TORSDOF 20
ENDMDL
MODEL 10
REMARK VINA RESULT:      -7.5      1.600      7.881
ROOT
ATOM    129  H39 UNL A   1      21.844  39.538  48.370  1.00  0.00    +0.000 H 
ATOM    130  H40 UNL A   1      18.381  42.251  50.805  1.00  0.00    +0.000 H 
ATOM    131  H41 UNL A   1      16.919  40.149  50.806  1.00  0.00    +0.000 H 
ATOM    132  H42 UNL A   1      23.938  35.141  45.644  1.00  0.00    +0.000 H 
ATOM    133  H43 UNL A   1      25.555  37.103  45.946  1.00  0.00    +0.000 H 
ATOM     31  C26 UNL A   1      24.384  39.370  47.213  1.00  0.00    +0.000 C 
ATOM     32  C27 UNL A   1      23.756  38.027  46.973  1.00  0.00    +0.000 C 
ATOM     33  N3  UNL A   1      22.558  37.606  47.288  1.00  0.00    +0.000 N 
ATOM     34  C28 UNL A   1      22.480  36.303  46.814  1.00  0.00    +0.000 C 
ATOM     35  C29 UNL A   1      21.465  35.417  46.947  1.00  0.00    +0.000 C 
ATOM     47  C36 UNL A   1      20.230  35.694  47.631  1.00  0.00    +0.000 C 
ATOM     48  C37 UNL A   1      19.157  34.849  47.850  1.00  0.00    +0.000 C 
ATOM     49  C38 UNL A   1      18.169  35.564  48.536  1.00  0.00    +0.000 C 
ATOM     50  C39 UNL A   1      18.644  36.843  48.778  1.00  0.00    +0.000 C 
ATOM     51  N4  UNL A   1      19.907  36.910  48.214  1.00  0.00    +0.000 N 
ATOM     52  C40 UNL A   1      17.992  37.924  49.472  1.00  0.00    +0.000 C 
ATOM     64  C47 UNL A   1      18.530  39.149  49.686  1.00  0.00    +0.000 C 
ATOM     65  N5  UNL A   1      19.776  39.631  49.311  1.00  0.00    +0.000 N 
ATOM     66  C48 UNL A   1      19.826  40.870  49.733  1.00  0.00    +0.000 C 
ATOM     67  C49 UNL A   1      20.946  41.866  49.618  1.00  0.00    +0.000 C 
ATOM     79  C56 UNL A   1      22.086  41.508  48.997  1.00  0.00    +0.000 C 
ATOM     80  C57 UNL A   1      23.257  42.362  48.814  1.00  0.00    +0.000 C 
ATOM     81  C58 UNL A   1      24.193  41.682  48.132  1.00  0.00    +0.000 C 
ATOM     82  C59 UNL A   1      23.699  40.332  47.860  1.00  0.00    +0.000 C 
ATOM     83  N6  UNL A   1      22.438  40.321  48.403  1.00  0.00    +0.000 N 
ATOM     84  C60 UNL A   1      18.602  41.324  50.411  1.00  0.00    +0.000 C 
ATOM     85  C61 UNL A   1      17.858  40.226  50.384  1.00  0.00    +0.000 C 
ATOM     86  C62 UNL A   1      23.732  36.018  46.146  1.00  0.00    +0.000 C 
ATOM     87  C63 UNL A   1      24.577  37.032  46.265  1.00  0.00    +0.000 C 
ATOM    124  H34 UNL A   1      19.095  33.861  47.558  1.00  0.00    +0.000 H 
ATOM    125  H35 UNL A   1      17.244  35.201  48.813  1.00  0.00    +0.000 H 
ATOM    126  H36 UNL A   1      20.489  37.705  48.223  1.00  0.00    +0.000 H 
ATOM    127  H37 UNL A   1      23.350  43.332  49.153  1.00  0.00    +0.000 H 
ATOM    128  H38 UNL A   1      25.112  42.051  47.845  1.00  0.00    +0.000 H 
ENDROOT
BRANCH   31   30
ATOM    134  H44 UNL A   1      26.734  38.601  48.240  1.00  0.00    +0.000 H 
ATOM    135  H45 UNL A   1      28.970  39.146  47.476  1.00  0.00    +0.000 H 
ATOM    123  H33 UNL A   1      25.114  40.814  45.041  1.00  0.00    +0.000 H 
ATOM     88  C64 UNL A   1      26.864  39.170  47.388  1.00  0.00    +0.000 C 
ATOM     89  C65 UNL A   1      28.149  39.450  46.931  1.00  0.00    +0.000 C 
ATOM    122  H32 UNL A   1      27.351  41.200  44.179  1.00  0.00    +0.000 H 
ATOM     27  C22 UNL A   1      28.324  40.145  45.730  1.00  0.00    +0.000 C 
ATOM     28  C23 UNL A   1      27.217  40.654  45.044  1.00  0.00    +0.000 C 
ATOM     29  C24 UNL A   1      25.931  40.421  45.535  1.00  0.00    +0.000 C 
ATOM     30  C25 UNL A   1      25.744  39.657  46.697  1.00  0.00    +0.000 C 
BRANCH   27   25
ATOM     25  C21 UNL A   1      29.674  40.383  45.176  1.00  0.00    +0.000 C 
ATOM     26  O3  UNL A   1      30.466  41.097  45.787  1.00  0.00    +0.000 O 
BRANCH   25   24
ATOM    121  H31 UNL A   1      29.604  40.198  43.184  1.00  0.00    +0.000 H 
ATOM     24  N2  UNL A   1      30.037  39.815  43.981  1.00  0.00    +0.000 N 
BRANCH   24   23
ATOM    119  H29 UNL A   1      30.772  38.330  42.752  1.00  0.00    +0.000 H 
ATOM     23  C20 UNL A   1      30.969  38.731  43.725  1.00  0.00    +0.000 C 
ATOM    120  H30 UNL A   1      31.960  39.127  43.791  1.00  0.00    +0.000 H 
BRANCH   23   22
ATOM    118  H28 UNL A   1      30.357  38.035  45.603  1.00  0.00    +0.000 H 
ATOM    117  H27 UNL A   1      31.826  37.242  44.964  1.00  0.00    +0.000 H 
ATOM     22  C19 UNL A   1      30.844  37.609  44.752  1.00  0.00    +0.000 C 
BRANCH   22   21
ATOM    115  H25 UNL A   1      30.123  36.282  43.262  1.00  0.00    +0.000 H 
ATOM    116  H26 UNL A   1      30.296  35.593  44.908  1.00  0.00    +0.000 H 
ATOM     21  C18 UNL A   1      29.979  36.424  44.313  1.00  0.00    +0.000 C 
BRANCH   21   20
ATOM    113  H23 UNL A   1      28.248  37.620  44.598  1.00  0.00    +0.000 H 
ATOM    114  H24 UNL A   1      27.987  36.053  43.769  1.00  0.00    +0.000 H 
ATOM     20  C17 UNL A   1      28.474  36.574  44.567  1.00  0.00    +0.000 C 
BRANCH   20   19
ATOM     19  C16 UNL A   1      27.963  35.940  45.863  1.00  0.00    +0.000 C 
ATOM    111  H21 UNL A   1      27.830  36.717  46.586  1.00  0.00    +0.000 H 
ATOM    112  H22 UNL A   1      27.050  35.438  45.620  1.00  0.00    +0.000 H 
BRANCH   19   18
ATOM     18  C15 UNL A   1      28.897  34.888  46.457  1.00  0.00    +0.000 C 
ATOM    109  H19 UNL A   1      28.731  33.955  45.959  1.00  0.00    +0.000 H 
ATOM    110  H20 UNL A   1      29.906  35.220  46.320  1.00  0.00    +0.000 H 
BRANCH   18   17
ATOM     17  N1  UNL A   1      28.668  34.710  47.879  1.00  0.00    +0.000 N 
ATOM    108  H18 UNL A   1      28.674  33.770  48.173  1.00  0.00    +0.000 H 
BRANCH   17   15
ATOM     15  C14 UNL A   1      28.448  35.610  48.886  1.00  0.00    +0.000 C 
ATOM     16  O2  UNL A   1      29.390  36.364  49.151  1.00  0.00    +0.000 O 
BRANCH   15   13
ATOM      2  C2  UNL A   1      23.963  38.907  51.350  1.00  0.00    +0.000 C 
ATOM      3  C3  UNL A   1      25.242  38.591  50.825  1.00  0.00    +0.000 C 
ATOM      5  C5  UNL A   1      25.468  37.314  50.277  1.00  0.00    +0.000 C 
ATOM      6  C6  UNL A   1      24.432  36.367  50.195  1.00  0.00    +0.000 C 
ATOM      7  C7  UNL A   1      23.172  36.657  50.756  1.00  0.00    +0.000 C 
ATOM    101  H11 UNL A   1      23.890  34.827  48.855  1.00  0.00    +0.000 H 
ATOM      9  C9  UNL A   1      22.960  37.921  51.328  1.00  0.00    +0.000 C 
ATOM    102  H12 UNL A   1      24.716  34.286  50.312  1.00  0.00    +0.000 H 
ATOM     11  C10 UNL A   1      24.681  35.032  49.546  1.00  0.00    +0.000 C 
ATOM     12  C11 UNL A   1      26.001  35.019  48.804  1.00  0.00    +0.000 C 
ATOM     13  C12 UNL A   1      27.098  35.656  49.659  1.00  0.00    +0.000 C 
ATOM    103  H13 UNL A   1      25.898  35.571  47.892  1.00  0.00    +0.000 H 
ATOM    104  H14 UNL A   1      26.270  34.006  48.590  1.00  0.00    +0.000 H 
ATOM     90  O4  UNL A   1      26.745  37.049  49.834  1.00  0.00    +0.000 O 
BRANCH    2    1
ATOM      1  C1  UNL A   1      23.714  40.290  51.897  1.00  0.00    +0.000 C 
ATOM     91  H1  UNL A   1      22.737  40.617  51.610  1.00  0.00    +0.000 H 
ATOM     92  H2  UNL A   1      24.446  40.965  51.508  1.00  0.00    +0.000 H 
ATOM     93  H3  UNL A   1      23.782  40.268  52.965  1.00  0.00    +0.000 H 
ENDBRANCH    2    1
BRANCH    3    4
ATOM      4  C4  UNL A   1      26.357  39.608  50.871  1.00  0.00    +0.000 C 
ATOM     94  H4  UNL A   1      27.115  39.277  51.550  1.00  0.00    +0.000 H 
ATOM     95  H5  UNL A   1      25.969  40.549  51.203  1.00  0.00    +0.000 H 
ATOM     96  H6  UNL A   1      26.779  39.722  49.895  1.00  0.00    +0.000 H 
ENDBRANCH    3    4
BRANCH    7    8
ATOM     97  H7  UNL A   1      22.324  34.853  50.032  1.00  0.00    +0.000 H 
ATOM     98  H8  UNL A   1      21.153  36.081  50.452  1.00  0.00    +0.000 H 
ATOM     99  H9  UNL A   1      21.975  35.190  51.711  1.00  0.00    +0.000 H 
ATOM      8  C8  UNL A   1      22.077  35.620  50.736  1.00  0.00    +0.000 C 
ENDBRANCH    7    8
BRANCH    9   10
ATOM     10  O1  UNL A   1      21.723  38.153  51.866  1.00  0.00    +0.000 O 
ATOM    100  H10 UNL A   1      21.375  39.024  51.882  1.00  0.00    +0.000 H 
ENDBRANCH    9   10
BRANCH   13   14
ATOM    105  H15 UNL A   1      26.420  35.114  51.626  1.00  0.00    +0.000 H 
ATOM    106  H16 UNL A   1      28.083  35.647  51.570  1.00  0.00    +0.000 H 
ATOM    107  H17 UNL A   1      27.655  34.057  50.984  1.00  0.00    +0.000 H 
ATOM     14  C13 UNL A   1      27.332  35.074  51.067  1.00  0.00    +0.000 C 
ENDBRANCH   13   14
ENDBRANCH   15   13
ENDBRANCH   17   15
ENDBRANCH   18   17
ENDBRANCH   19   18
ENDBRANCH   20   19
ENDBRANCH   21   20
ENDBRANCH   22   21
ENDBRANCH   23   22
ENDBRANCH   24   23
ENDBRANCH   25   24
ENDBRANCH   27   25
ENDBRANCH   31   30
BRANCH   35   36
ATOM     36  C30 UNL A   1      21.651  34.055  46.349  1.00  0.00    +0.000 C 
ATOM     37  C31 UNL A   1      21.350  33.804  45.001  1.00  0.00    +0.000 C 
ATOM     38  F1  UNL A   1      20.831  34.774  44.234  1.00  0.00    +0.000 F 
ATOM     39  C32 UNL A   1      21.554  32.544  44.445  1.00  0.00    +0.000 C 
ATOM     40  F2  UNL A   1      21.223  32.317  43.166  1.00  0.00    +0.000 F 
ATOM     41  C33 UNL A   1      22.088  31.522  45.214  1.00  0.00    +0.000 C 
ATOM     42  F3  UNL A   1      22.292  30.312  44.675  1.00  0.00    +0.000 F 
ATOM     43  C34 UNL A   1      22.405  31.752  46.544  1.00  0.00    +0.000 C 
ATOM     44  F4  UNL A   1      22.932  30.768  47.287  1.00  0.00    +0.000 F 
ATOM     45  C35 UNL A   1      22.179  33.004  47.112  1.00  0.00    +0.000 C 
ATOM     46  F5  UNL A   1      22.487  33.193  48.403  1.00  0.00    +0.000 F 
ENDBRANCH   35   36
BRANCH   52   53
ATOM     53  C41 UNL A   1      16.616  37.670  50.009  1.00  0.00    +0.000 C 
ATOM     54  C42 UNL A   1      16.374  37.589  51.388  1.00  0.00    +0.000 C 
ATOM     55  F6  UNL A   1      17.394  37.657  52.256  1.00  0.00    +0.000 F 
ATOM     56  C43 UNL A   1      15.082  37.413  51.877  1.00  0.00    +0.000 C 
ATOM     57  F7  UNL A   1      14.877  37.308  53.197  1.00  0.00    +0.000 F 
ATOM     58  C44 UNL A   1      14.009  37.342  51.000  1.00  0.00    +0.000 C 
ATOM     59  F8  UNL A   1      12.765  37.187  51.475  1.00  0.00    +0.000 F 
ATOM     60  C45 UNL A   1      14.226  37.427  49.633  1.00  0.00    +0.000 C 
ATOM     61  F9  UNL A   1      13.189  37.370  48.787  1.00  0.00    +0.000 F 
ATOM     62  C46 UNL A   1      15.519  37.578  49.140  1.00  0.00    +0.000 C 
ATOM     63  F10 UNL A   1      15.698  37.657  47.813  1.00  0.00    +0.000 F 
ENDBRANCH   52   53
BRANCH   67   68
ATOM     68  C50 UNL A   1      20.827  43.221  50.212  1.00  0.00    +0.000 C 
ATOM     69  C51 UNL A   1      21.092  43.432  51.572  1.00  0.00    +0.000 C 
ATOM     70  F11 UNL A   1      21.414  42.394  52.357  1.00  0.00    +0.000 F 
ATOM     71  C52 UNL A   1      20.999  44.702  52.135  1.00  0.00    +0.000 C 
ATOM     72  F12 UNL A   1      21.229  44.870  53.443  1.00  0.00    +0.000 F 
ATOM     73  C53 UNL A   1      20.662  45.790  51.344  1.00  0.00    +0.000 C 
ATOM     74  F13 UNL A   1      20.583  47.014  51.884  1.00  0.00    +0.000 F 
ATOM     75  C54 UNL A   1      20.402  45.608  49.994  1.00  0.00    +0.000 C 
ATOM     76  F14 UNL A   1      20.088  46.659  49.224  1.00  0.00    +0.000 F 
ATOM     77  C55 UNL A   1      20.473  44.333  49.435  1.00  0.00    +0.000 C 
ATOM     78  F15 UNL A   1      20.214  44.185  48.127  1.00  0.00    +0.000 F 
ENDBRANCH   67   68
TORSDOF 20
ENDMDL
